

        *** GPGPU-Sim Simulator Version 3.2.2  [build 17315] ***


GPGPU-Sim PTX: simulation mode 0 (can change with PTX_SIM_MODE_FUNC environment variable:
               1=functional simulation only, 0=detailed performance simulator)
GPGPU-Sim: Configuration options:

-network_mode                           1 # Interconnection network mode
-inter_config_file   config_fermi_islip.icnt # Interconnection network config file
-gpgpu_ptx_use_cuobjdump                    1 # Use cuobjdump to extract ptx and sass from binaries
-gpgpu_experimental_lib_support                    0 # Try to extract code from cuda libraries [Broken because of unknown cudaGetExportTable]
-gpgpu_ptx_convert_to_ptxplus                    0 # Convert SASS (native ISA) to ptxplus and run ptxplus
-gpgpu_ptx_force_max_capability                   20 # Force maximum compute capability
-gpgpu_ptx_inst_debug_to_file                    0 # Dump executed instructions' debug information to file
-gpgpu_ptx_inst_debug_file       inst_debug.txt # Executed instructions' debug output file
-gpgpu_ptx_inst_debug_thread_uid                    1 # Thread UID for executed instructions' debug output
-gpgpu_simd_model                       1 # 1 = post-dominator
-gpgpu_shader_core_pipeline              1536:32 # shader core pipeline config, i.e., {<nthread>:<warpsize>}
-gpgpu_tex_cache:l1  4:128:24,L:R:m:N,F:128:4,128:2 # per-shader L1 texture cache  (READ-ONLY) config  {<nsets>:<bsize>:<assoc>,<rep>:<wr>:<alloc>:<wr_alloc>,<mshr>:<N>:<merge>,<mq>:<rf>}
-gpgpu_const_cache:l1 64:64:2,L:R:f:N,A:2:32,4 # per-shader L1 constant memory cache  (READ-ONLY) config  {<nsets>:<bsize>:<assoc>,<rep>:<wr>:<alloc>:<wr_alloc>,<mshr>:<N>:<merge>,<mq>} 
-gpgpu_cache:il1     4:128:4,L:R:f:N,A:2:32,4 # shader L1 instruction cache config  {<nsets>:<bsize>:<assoc>,<rep>:<wr>:<alloc>:<wr_alloc>,<mshr>:<N>:<merge>,<mq>} 
-gpgpu_cache:dl1     32:128:4,M:L:m:N,A:32:8,8 # per-shader L1 data cache config  {<nsets>:<bsize>:<assoc>,<rep>:<wr>:<alloc>:<wr_alloc>,<mshr>:<N>:<merge>,<mq> | none}
-gpgpu_cache:dl1PrefL1                 none # per-shader L1 data cache config  {<nsets>:<bsize>:<assoc>,<rep>:<wr>:<alloc>:<wr_alloc>,<mshr>:<N>:<merge>,<mq> | none}
-gpgpu_cache:dl1PreShared                 none # per-shader L1 data cache config  {<nsets>:<bsize>:<assoc>,<rep>:<wr>:<alloc>:<wr_alloc>,<mshr>:<N>:<merge>,<mq> | none}
-gmem_skip_L1D                          0 # global memory access skip L1D cache (implements -Xptxas -dlcm=cg, default=no skip)
-gpgpu_perfect_mem                      0 # enable perfect memory mode (no cache miss)
-n_regfile_gating_group                    4 # group of lanes that should be read/written together)
-gpgpu_clock_gated_reg_file                    0 # enable clock gated reg file for power calculations
-gpgpu_clock_gated_lanes                    0 # enable clock gated lanes for power calculations
-gpgpu_shader_registers                32768 # Number of registers per shader core. Limits number of concurrent CTAs. (default 8192)
-gpgpu_shader_cta                       8 # Maximum number of concurrent CTAs in shader (default 8)
-gpgpu_n_clusters                      15 # number of processing clusters
-gpgpu_n_cores_per_cluster                    1 # number of simd cores per cluster
-gpgpu_n_cluster_ejection_buffer_size                    8 # number of packets in ejection buffer
-gpgpu_n_ldst_response_buffer_size                    2 # number of response packets in ld/st unit ejection buffer
-gpgpu_shmem_size                   16384 # Size of shared memory per shader core (default 16kB)
-gpgpu_shmem_size                   49152 # Size of shared memory per shader core (default 16kB)
-gpgpu_shmem_size_PrefL1                16384 # Size of shared memory per shader core (default 16kB)
-gpgpu_shmem_size_PrefShared                16384 # Size of shared memory per shader core (default 16kB)
-gpgpu_shmem_num_banks                   32 # Number of banks in the shared memory in each shader core (default 16)
-gpgpu_shmem_limited_broadcast                    0 # Limit shared memory to do one broadcast per cycle (default on)
-gpgpu_shmem_warp_parts                    1 # Number of portions a warp is divided into for shared memory bank conflict check 
-gpgpu_warpdistro_shader                   -1 # Specify which shader core to collect the warp size distribution from
-gpgpu_warp_issue_shader                    0 # Specify which shader core to collect the warp issue distribution from
-gpgpu_local_mem_map                    1 # Mapping from local memory space address to simulated GPU physical address space (default = enabled)
-gpgpu_num_reg_banks                   16 # Number of register banks (default = 8)
-gpgpu_reg_bank_use_warp_id                    0 # Use warp ID in mapping registers to banks (default = off)
-gpgpu_operand_collector_num_units_sp                    6 # number of collector units (default = 4)
-gpgpu_operand_collector_num_units_sfu                    8 # number of collector units (default = 4)
-gpgpu_operand_collector_num_units_mem                    2 # number of collector units (default = 2)
-gpgpu_operand_collector_num_units_gen                    0 # number of collector units (default = 0)
-gpgpu_operand_collector_num_in_ports_sp                    2 # number of collector unit in ports (default = 1)
-gpgpu_operand_collector_num_in_ports_sfu                    1 # number of collector unit in ports (default = 1)
-gpgpu_operand_collector_num_in_ports_mem                    1 # number of collector unit in ports (default = 1)
-gpgpu_operand_collector_num_in_ports_gen                    0 # number of collector unit in ports (default = 0)
-gpgpu_operand_collector_num_out_ports_sp                    2 # number of collector unit in ports (default = 1)
-gpgpu_operand_collector_num_out_ports_sfu                    1 # number of collector unit in ports (default = 1)
-gpgpu_operand_collector_num_out_ports_mem                    1 # number of collector unit in ports (default = 1)
-gpgpu_operand_collector_num_out_ports_gen                    0 # number of collector unit in ports (default = 0)
-gpgpu_coalesce_arch                   13 # Coalescing arch (default = 13, anything else is off for now)
-gpgpu_num_sched_per_core                    2 # Number of warp schedulers per core
-gpgpu_max_insn_issue_per_warp                    1 # Max number of instructions that can be issued per warp in one cycle by scheduler
-gpgpu_simt_core_sim_order                    1 # Select the simulation order of cores in a cluster (0=Fix, 1=Round-Robin)
-gpgpu_pipeline_widths        2,1,1,2,1,1,2 # Pipeline widths ID_OC_SP,ID_OC_SFU,ID_OC_MEM,OC_EX_SP,OC_EX_SFU,OC_EX_MEM,EX_WB
-gpgpu_num_sp_units                     2 # Number of SP units (default=1)
-gpgpu_num_sfu_units                    1 # Number of SF units (default=1)
-gpgpu_num_mem_units                    1 # Number if ldst units (default=1) WARNING: not hooked up to anything
-gpgpu_scheduler                      lrr # Scheduler configuration: < lrr | gto | two_level_active > If two_level_active:<num_active_warps>:<inner_prioritization>:<outer_prioritization>For complete list of prioritization values see shader.h enum scheduler_prioritization_typeDefault: gto
-gpgpu_dram_scheduler                    1 # 0 = fifo, 1 = FR-FCFS (defaul)
-gpgpu_dram_partition_queues              8:8:8:8 # i2$:$2d:d2$:$2i
-l2_ideal                               0 # Use a ideal L2 cache that always hit
-gpgpu_cache:dl2     64:128:8,L:B:m:W,A:32:4,4:0,32 # unified banked L2 data cache config  {<nsets>:<bsize>:<assoc>,<rep>:<wr>:<alloc>:<wr_alloc>,<mshr>:<N>:<merge>,<mq>}
-gpgpu_cache:dl2_texture_only                    0 # L2 cache used for texture only
-gpgpu_n_mem                            6 # number of memory modules (e.g. memory controllers) in gpu
-gpgpu_n_sub_partition_per_mchannel                    2 # number of memory subpartition in each memory module
-gpgpu_n_mem_per_ctrlr                    2 # number of memory chips per memory controller
-gpgpu_memlatency_stat                   14 # track and display latency statistics 0x2 enables MC, 0x4 enables queue logs
-gpgpu_frfcfs_dram_sched_queue_size                   16 # 0 = unlimited (default); # entries per chip
-gpgpu_dram_return_queue_size                  116 # 0 = unlimited (default); # entries per chip
-gpgpu_dram_buswidth                    4 # default = 4 bytes (8 bytes per cycle at DDR)
-gpgpu_dram_burst_length                    8 # Burst length of each DRAM request (default = 4 data bus cycle)
-dram_data_command_freq_ratio                    4 # Frequency ratio between DRAM data bus and command bus (default = 2 times, i.e. DDR)
-gpgpu_dram_timing_opt nbk=16:CCD=2:RRD=6:RCD=12:RAS=28:RP=12:RC=40: CL=12:WL=4:CDLR=5:WR=12:nbkgrp=4:CCDL=3:RTPL=2 # DRAM timing parameters = {nbk:tCCD:tRRD:tRCD:tRAS:tRP:tRC:CL:WL:tCDLR:tWR:nbkgrp:tCCDL:tRTPL}
-rop_latency                          120 # ROP queue latency (default 85)
-dram_latency                         100 # DRAM latency (default 30)
-gpgpu_mem_addr_mapping dramid@8;00000000.00000000.00000000.00000000.0000RRRR.RRRRRRRR.BBBCCCCB.CCSSSSSS # mapping memory address to dram model {dramid@<start bit>;<memory address map>}
-gpgpu_mem_addr_test                    0 # run sweep test to check address mapping for aliased address
-gpgpu_mem_address_mask                    1 # 0 = old addressing mask, 1 = new addressing mask, 2 = new add. mask + flipped bank sel and chip sel bits
-gpuwattch_xml_file  gpuwattch_gtx480.xml # GPUWattch XML file
-power_simulation_enabled                    1 # Turn on power simulator (1=On, 0=Off)
-power_per_cycle_dump                    0 # Dump detailed power output each cycle
-power_trace_enabled                    0 # produce a file for the power trace (1=On, 0=Off)
-power_trace_zlevel                     6 # Compression level of the power trace output log (0=no comp, 9=highest)
-steady_power_levels_enabled                    0 # produce a file for the steady power levels (1=On, 0=Off)
-steady_state_definition                  8:4 # allowed deviation:number of samples
-gpgpu_max_cycle                        0 # terminates gpu simulation early (0 = no limit)
-gpgpu_max_insn                         0 # terminates gpu simulation early (0 = no limit)
-gpgpu_max_cta                          0 # terminates gpu simulation early (0 = no limit)
-gpgpu_runtime_stat                   500 # display runtime statistics such as dram utilization {<freq>:<flag>}
-liveness_message_freq                    1 # Minimum number of seconds between simulation liveness messages (0 = always print)
-gpgpu_flush_l1_cache                    0 # Flush L1 cache at the end of each kernel call
-gpgpu_flush_l2_cache                    0 # Flush L2 cache at the end of each kernel call
-gpgpu_deadlock_detect                    1 # Stop the simulation at deadlock (1=on (default), 0=off)
-gpgpu_ptx_instruction_classification                    0 # if enabled will classify ptx instruction types per kernel (Max 255 kernels now)
-gpgpu_ptx_sim_mode                     0 # Select between Performance (default) or Functional simulation (1)
-gpgpu_clock_domains 700.0:700.0:700.0:924.0 # Clock Domain Frequencies in MhZ {<Core Clock>:<ICNT Clock>:<L2 Clock>:<DRAM Clock>}
-gpgpu_max_concurrent_kernel                    8 # maximum kernels that can run concurrently on GPU
-gpgpu_cflog_interval                    0 # Interval between each snapshot in control flow logger
-visualizer_enabled                     0 # Turn on visualizer output (1=On, 0=Off)
-visualizer_outputfile                 NULL # Specifies the output log file for visualizer
-visualizer_zlevel                      6 # Compression level of the visualizer output log (0=no comp, 9=highest)
-trace_enabled                          0 # Turn on traces
-trace_components                    none # comma seperated list of traces to enable. Complete list found in trace_streams.tup. Default none
-trace_sampling_core                    0 # The core which is printed using CORE_DPRINTF. Default 0
-trace_sampling_memory_partition                   -1 # The memory partition which is printed using MEMPART_DPRINTF. Default -1 (i.e. all)
-enable_ptx_file_line_stats                    1 # Turn on PTX source line statistic profiling. (1 = On)
-ptx_line_stats_filename gpgpu_inst_stats.txt # Output file for PTX source line statistics.
-save_embedded_ptx                      0 # saves ptx files embedded in binary as <n>.ptx
-keep                                   0 # keep intermediate files created by GPGPU-Sim when interfacing with external programs
-gpgpu_ptx_save_converted_ptxplus                    0 # Saved converted ptxplus to a file
-ptx_opcode_latency_int         4,13,4,5,145 # Opcode latencies for integers <ADD,MAX,MUL,MAD,DIV>Default 1,1,19,25,145
-ptx_opcode_latency_fp          4,13,4,5,39 # Opcode latencies for single precision floating points <ADD,MAX,MUL,MAD,DIV>Default 1,1,1,1,30
-ptx_opcode_latency_dp         8,19,8,8,330 # Opcode latencies for double precision floating points <ADD,MAX,MUL,MAD,DIV>Default 8,8,8,8,335
-ptx_opcode_initiation_int            1,2,2,1,8 # Opcode initiation intervals for integers <ADD,MAX,MUL,MAD,DIV>Default 1,1,4,4,32
-ptx_opcode_initiation_fp            1,2,1,1,4 # Opcode initiation intervals for single precision floating points <ADD,MAX,MUL,MAD,DIV>Default 1,1,1,1,5
-ptx_opcode_initiation_dp         8,16,8,8,130 # Opcode initiation intervals for double precision floating points <ADD,MAX,MUL,MAD,DIV>Default 8,8,8,8,130
DRAM Timing Options:
nbk                                    16 # number of banks
CCD                                     2 # column to column delay
RRD                                     6 # minimal delay between activation of rows in different banks
RCD                                    12 # row to column delay
RAS                                    28 # time needed to activate row
RP                                     12 # time needed to precharge (deactivate) row
RC                                     40 # row cycle time
CDLR                                    5 # switching from write to read (changes tWTR)
WR                                     12 # last data-in to row precharge
CL                                     12 # CAS latency
WL                                      4 # Write latency
nbkgrp                                  4 # number of bank groups
CCDL                                    3 # column to column delay between accesses to different bank groups
RTPL                                    2 # read to precharge delay between accesses to different bank groups
Total number of memory sub partition = 12
addr_dec_mask[CHIP]  = 0000000000000000 	high:64 low:0
addr_dec_mask[BK]    = 000000000000e100 	high:16 low:8
addr_dec_mask[ROW]   = 000000000fff0000 	high:28 low:16
addr_dec_mask[COL]   = 0000000000001eff 	high:13 low:0
addr_dec_mask[BURST] = 000000000000003f 	high:6 low:0
sub_partition_id_mask = 0000000000000100
GPGPU-Sim uArch: clock freqs: 700000000.000000:700000000.000000:700000000.000000:924000000.000000
GPGPU-Sim uArch: clock periods: 0.00000000142857142857:0.00000000142857142857:0.00000000142857142857:0.00000000108225108225
*** Initializing Memory Statistics ***
GPGPU-Sim uArch: interconnect node map (shaderID+MemID to icntID)
GPGPU-Sim uArch: Memory nodes ID start from index: 15
GPGPU-Sim uArch:    0   1   2   3   4
GPGPU-Sim uArch:    5   6   7   8   9
GPGPU-Sim uArch:   10  11  12  13  14
GPGPU-Sim uArch:   15  16  17  18  19
GPGPU-Sim uArch:   20  21  22  23  24
GPGPU-Sim uArch:   25  26
GPGPU-Sim uArch: interconnect node reverse map (icntID to shaderID+MemID)
GPGPU-Sim uArch: Memory nodes start from ID: 15
GPGPU-Sim uArch:    0   1   2   3   4
GPGPU-Sim uArch:    5   6   7   8   9
GPGPU-Sim uArch:   10  11  12  13  14
GPGPU-Sim uArch:   15  16  17  18  19
GPGPU-Sim uArch:   20  21  22  23  24
GPGPU-Sim uArch:   25  26
5dfc00447550946b86c573f0833154d9  /home/xlxie/workdir_Aug1st_2014/bm/rodinia_2.4_sim_1.0/cuda/b+tree.tmp.1/b+tree.out
GPGPU-Sim uArch: performance model initialization complete.
GPGPU-Sim PTX: __cudaRegisterFatBinary, fat_cubin_handle = 1, filename=./kernel/kernel_gpu_cuda_wrapper.cu
self exe links to: /home/xlxie/workdir_Aug1st_2014/bm/rodinia_2.4_sim_1.0/cuda/b+tree.tmp.1/b+tree.out
Running md5sum using "md5sum /home/xlxie/workdir_Aug1st_2014/bm/rodinia_2.4_sim_1.0/cuda/b+tree.tmp.1/b+tree.out "
Running cuobjdump using "$CUDA_INSTALL_PATH/bin/cuobjdump -ptx -elf -sass /home/xlxie/workdir_Aug1st_2014/bm/rodinia_2.4_sim_1.0/cuda/b+tree.tmp.1/b+tree.out > _cuobjdump_complete_output_YjPuUG"
Parsing file _cuobjdump_complete_output_YjPuUG
######### cuobjdump parser ########
## Adding new section PTX
Adding ptx filename: _cuobjdump_1.ptx
Adding arch: sm_20
Adding identifier: ./kernel/kernel_gpu_cuda_wrapper.cu
## Adding new section PTX
Adding ptx filename: _cuobjdump_2.ptx
Adding arch: sm_20
Adding identifier: ./kernel/kernel_gpu_cuda_wrapper_2.cu
## Adding new section PTX
Adding ptx filename: _cuobjdump_3.ptx
Adding arch: sm_20
Adding identifier: ./util/cuda/cuda.cu
Done parsing!!!
GPGPU-Sim PTX: __cudaRegisterFunction findK : hostFun 0x0x405e20, fat_cubin_handle = 1
GPGPU-Sim PTX: instruction assembly for function 'findK'...   done.
GPGPU-Sim PTX: finding reconvergence points for 'findK'...
GPGPU-Sim PTX: Finding dominators for 'findK'...
GPGPU-Sim PTX: Finding immediate dominators for 'findK'...
GPGPU-Sim PTX: Finding postdominators for 'findK'...
GPGPU-Sim PTX: Finding immediate postdominators for 'findK'...
GPGPU-Sim PTX: pre-decoding instructions for 'findK'...
GPGPU-Sim PTX: reconvergence points for findK...
GPGPU-Sim PTX:  1 (potential) branch divergence @  PC=0x038 (_1.ptx:74) @%p1 bra $Lt_0_7682;
GPGPU-Sim PTX:    immediate post dominator      @  PC=0x1e8 (_1.ptx:141) ld.global.u64 %rd32, [%rd12+0];
GPGPU-Sim PTX:  2 (potential) branch divergence @  PC=0x0d0 (_1.ptx:96) @%p3 bra $Lt_0_7938;
GPGPU-Sim PTX:    immediate post dominator      @  PC=0x150 (_1.ptx:116) bar.sync 0;
GPGPU-Sim PTX:  3 (potential) branch divergence @  PC=0x0e8 (_1.ptx:99) @%p4 bra $Lt_0_7938;
GPGPU-Sim PTX:    immediate post dominator      @  PC=0x150 (_1.ptx:116) bar.sync 0;
GPGPU-Sim PTX:  4 (potential) branch divergence @  PC=0x140 (_1.ptx:110) @%p5 bra $Lt_0_7938;
GPGPU-Sim PTX:    immediate post dominator      @  PC=0x150 (_1.ptx:116) bar.sync 0;
GPGPU-Sim PTX:  5 (potential) branch divergence @  PC=0x158 (_1.ptx:117) @!%p2 bra $Lt_0_6402;
GPGPU-Sim PTX:    immediate post dominator      @  PC=0x180 (_1.ptx:125) bar.sync 0;
GPGPU-Sim PTX:  6 (potential) branch divergence @  PC=0x198 (_1.ptx:129) @%p6 bra $Lt_0_5634;
GPGPU-Sim PTX:    immediate post dominator      @  PC=0x1a0 (_1.ptx:130) bra.uni $Lt_0_5122;
GPGPU-Sim PTX:  7 (potential) branch divergence @  PC=0x1a0 (_1.ptx:130) bra.uni $Lt_0_5122;
GPGPU-Sim PTX:    immediate post dominator      @  PC=0x1e8 (_1.ptx:141) ld.global.u64 %rd32, [%rd12+0];
GPGPU-Sim PTX:  8 (potential) branch divergence @  PC=0x220 (_1.ptx:148) @%p7 bra $Lt_0_7170;
GPGPU-Sim PTX:    immediate post dominator      @  PC=0x270 (_1.ptx:161) exit;
GPGPU-Sim PTX: ... end of reconvergence points for findK
GPGPU-Sim PTX: ... done pre-decoding instructions for 'findK'.
GPGPU-Sim PTX: finished parsing EMBEDDED .ptx file _1.ptx
Adding _cuobjdump_1.ptx with cubin handle 1
GPGPU-Sim PTX: extracting embedded .ptx to temporary file "_ptx_lWcH02"
Running: cat _ptx_lWcH02 | sed 's/.version 1.5/.version 1.4/' | sed 's/, texmode_independent//' | sed 's/\(\.extern \.const\[1\] .b8 \w\+\)\[\]/\1\[1\]/' | sed 's/const\[.\]/const\[0\]/g' > _ptx2_ftzU6o
GPGPU-Sim PTX: generating ptxinfo using "$CUDA_INSTALL_PATH/bin/ptxas --gpu-name=sm_20 -v _ptx2_ftzU6o --output-file  /dev/null 2> _ptx_lWcH02info"
GPGPU-Sim PTX: Kernel 'findK' : regs=18, lmem=0, smem=0, cmem=96
GPGPU-Sim PTX: removing ptxinfo using "rm -f _ptx_lWcH02 _ptx2_ftzU6o _ptx_lWcH02info"
GPGPU-Sim PTX: loading globals with explicit initializers... 
GPGPU-Sim PTX: finished loading globals (0 bytes total).
GPGPU-Sim PTX: loading constants with explicit initializers...  done.
GPGPU-Sim PTX: __cudaRegisterFatBinary, fat_cubin_handle = 2, filename=./kernel/kernel_gpu_cuda_wrapper_2.cu
GPGPU-Sim PTX: __cudaRegisterFunction findRangeK : hostFun 0x0x406530, fat_cubin_handle = 2
GPGPU-Sim PTX: instruction assembly for function 'findRangeK'...   done.
GPGPU-Sim PTX: finding reconvergence points for 'findRangeK'...
GPGPU-Sim PTX: Finding dominators for 'findRangeK'...
GPGPU-Sim PTX: Finding immediate dominators for 'findRangeK'...
GPGPU-Sim PTX: Finding postdominators for 'findRangeK'...
GPGPU-Sim PTX: Finding immediate postdominators for 'findRangeK'...
GPGPU-Sim PTX: pre-decoding instructions for 'findRangeK'...
GPGPU-Sim PTX: reconvergence points for findRangeK...
GPGPU-Sim PTX:  1 (potential) branch divergence @  PC=0x2c0 (_2.ptx:79) @%p1 bra $Lt_0_11778;
GPGPU-Sim PTX:    immediate post dominator      @  PC=0x528 (_2.ptx:174) ld.global.u64 %rd43, [%rd15+0];
GPGPU-Sim PTX:  2 (potential) branch divergence @  PC=0x368 (_2.ptx:103) @%p3 bra $Lt_0_12034;
GPGPU-Sim PTX:    immediate post dominator      @  PC=0x3c8 (_2.ptx:119) ld.global.s32 %r8, [%rd14+0];
GPGPU-Sim PTX:  3 (potential) branch divergence @  PC=0x380 (_2.ptx:106) @%p4 bra $Lt_0_12034;
GPGPU-Sim PTX:    immediate post dominator      @  PC=0x3c8 (_2.ptx:119) ld.global.s32 %r8, [%rd14+0];
GPGPU-Sim PTX:  4 (potential) branch divergence @  PC=0x3a8 (_2.ptx:111) @%p5 bra $Lt_0_12034;
GPGPU-Sim PTX:    immediate post dominator      @  PC=0x3c8 (_2.ptx:119) ld.global.s32 %r8, [%rd14+0];
GPGPU-Sim PTX:  5 (potential) branch divergence @  PC=0x400 (_2.ptx:126) @%p6 bra $Lt_0_12546;
GPGPU-Sim PTX:    immediate post dominator      @  PC=0x460 (_2.ptx:142) bar.sync 0;
GPGPU-Sim PTX:  6 (potential) branch divergence @  PC=0x418 (_2.ptx:129) @%p7 bra $Lt_0_12546;
GPGPU-Sim PTX:    immediate post dominator      @  PC=0x460 (_2.ptx:142) bar.sync 0;
GPGPU-Sim PTX:  7 (potential) branch divergence @  PC=0x440 (_2.ptx:134) @%p8 bra $Lt_0_12546;
GPGPU-Sim PTX:    immediate post dominator      @  PC=0x460 (_2.ptx:142) bar.sync 0;
GPGPU-Sim PTX:  8 (potential) branch divergence @  PC=0x468 (_2.ptx:143) @!%p2 bra $Lt_0_9986;
GPGPU-Sim PTX:    immediate post dominator      @  PC=0x4b0 (_2.ptx:156) bar.sync 0;
GPGPU-Sim PTX:  9 (potential) branch divergence @  PC=0x4c8 (_2.ptx:160) @%p9 bra $Lt_0_8706;
GPGPU-Sim PTX:    immediate post dominator      @  PC=0x4d0 (_2.ptx:161) bra.uni $Lt_0_8194;
GPGPU-Sim PTX: 10 (potential) branch divergence @  PC=0x4d0 (_2.ptx:161) bra.uni $Lt_0_8194;
GPGPU-Sim PTX:    immediate post dominator      @  PC=0x528 (_2.ptx:174) ld.global.u64 %rd43, [%rd15+0];
GPGPU-Sim PTX: 11 (potential) branch divergence @  PC=0x560 (_2.ptx:181) @%p10 bra $Lt_0_10754;
GPGPU-Sim PTX:    immediate post dominator      @  PC=0x588 (_2.ptx:189) bar.sync 0;
GPGPU-Sim PTX: 12 (potential) branch divergence @  PC=0x5c8 (_2.ptx:197) @%p11 bra $Lt_0_11266;
GPGPU-Sim PTX:    immediate post dominator      @  PC=0x618 (_2.ptx:210) exit;
GPGPU-Sim PTX: ... end of reconvergence points for findRangeK
GPGPU-Sim PTX: ... done pre-decoding instructions for 'findRangeK'.
GPGPU-Sim PTX: finished parsing EMBEDDED .ptx file _2.ptx
Adding _cuobjdump_2.ptx with cubin handle 2
GPGPU-Sim PTX: extracting embedded .ptx to temporary file "_ptx_8Jn0SL"
Running: cat _ptx_8Jn0SL | sed 's/.version 1.5/.version 1.4/' | sed 's/, texmode_independent//' | sed 's/\(\.extern \.const\[1\] .b8 \w\+\)\[\]/\1\[1\]/' | sed 's/const\[.\]/const\[0\]/g' > _ptx2_Ysx7E8
GPGPU-Sim PTX: generating ptxinfo using "$CUDA_INSTALL_PATH/bin/ptxas --gpu-name=sm_20 -v _ptx2_Ysx7E8 --output-file  /dev/null 2> _ptx_8Jn0SLinfo"
GPGPU-Sim PTX: Kernel 'findRangeK' : regs=23, lmem=0, smem=0, cmem=120
GPGPU-Sim PTX: removing ptxinfo using "rm -f _ptx_8Jn0SL _ptx2_Ysx7E8 _ptx_8Jn0SLinfo"
GPGPU-Sim PTX: loading globals with explicit initializers... 
GPGPU-Sim PTX: finished loading globals (0 bytes total).
GPGPU-Sim PTX: loading constants with explicit initializers...  done.
GPGPU-Sim PTX: __cudaRegisterFatBinary, fat_cubin_handle = 3, filename=./util/cuda/cuda.cu
Selecting device 0
Input File: ../../data/b+tree/mil.txt 
Command File: ../../data/b+tree/command.txt 
Command Buffer: 
j 6000 3000
k 10000


Getting input from file ../../data/b+tree/mil.txt...
Transforming data to a GPU suitable structure...
Tree transformation took 0.845409
Waiting for command
> 
******command: j count=6000, rSize=6000 
knodes_elem=3953, knodes_unit_mem=4084, knodes_mem=16144052
GPGPU-Sim: synchronize waiting for inactive GPU simulation
GPGPU-Sim API: Stream Manager State
GPGPU-Sim: detected inactive GPU simulation thread
# of blocks = 6000, # of threads/block = 508 (ensure that device can handle)

GPGPU-Sim PTX: cudaLaunch for 0x0x406530 (mode=performance simulation) on stream 0
GPGPU-Sim PTX: pushing kernel 'findRangeK' to stream 0, gridDim= (6000,1,1) blockDim = (508,1,1) 
kernel 'findRangeK' transfer to GPU hardware scheduler
GPGPU-Sim uArch: Shader 1 bind to kernel 1 'findRangeK'
GPGPU-Sim uArch: CTA/core = 2, limited by: regs
GPGPU-Sim uArch: core:  1, cta: 0 initialized @(1,0)
GPGPU-Sim uArch: Shader 2 bind to kernel 1 'findRangeK'
GPGPU-Sim uArch: core:  2, cta: 0 initialized @(1,0)
GPGPU-Sim uArch: Shader 3 bind to kernel 1 'findRangeK'
GPGPU-Sim uArch: core:  3, cta: 0 initialized @(1,0)
GPGPU-Sim uArch: Shader 4 bind to kernel 1 'findRangeK'
GPGPU-Sim uArch: core:  4, cta: 0 initialized @(1,0)
GPGPU-Sim uArch: Shader 5 bind to kernel 1 'findRangeK'
GPGPU-Sim uArch: core:  5, cta: 0 initialized @(1,0)
GPGPU-Sim uArch: Shader 6 bind to kernel 1 'findRangeK'
GPGPU-Sim uArch: core:  6, cta: 0 initialized @(1,0)
GPGPU-Sim uArch: Shader 7 bind to kernel 1 'findRangeK'
GPGPU-Sim uArch: core:  7, cta: 0 initialized @(1,0)
GPGPU-Sim uArch: Shader 8 bind to kernel 1 'findRangeK'
GPGPU-Sim uArch: core:  8, cta: 0 initialized @(1,0)
GPGPU-Sim uArch: Shader 9 bind to kernel 1 'findRangeK'
GPGPU-Sim uArch: core:  9, cta: 0 initialized @(1,0)
GPGPU-Sim uArch: Shader 10 bind to kernel 1 'findRangeK'
GPGPU-Sim uArch: core: 10, cta: 0 initialized @(1,0)
GPGPU-Sim uArch: Shader 11 bind to kernel 1 'findRangeK'
GPGPU-Sim uArch: core: 11, cta: 0 initialized @(1,0)
GPGPU-Sim uArch: Shader 12 bind to kernel 1 'findRangeK'
GPGPU-Sim uArch: core: 12, cta: 0 initialized @(1,0)
GPGPU-Sim uArch: Shader 13 bind to kernel 1 'findRangeK'
GPGPU-Sim uArch: core: 13, cta: 0 initialized @(1,0)
GPGPU-Sim uArch: Shader 14 bind to kernel 1 'findRangeK'
GPGPU-Sim uArch: core: 14, cta: 0 initialized @(1,0)
GPGPU-Sim uArch: Shader 0 bind to kernel 1 'findRangeK'
GPGPU-Sim uArch: core:  0, cta: 0 initialized @(1,0)
GPGPU-Sim uArch: core:  1, cta: 1 initialized @(2,0)
GPGPU-Sim uArch: core:  2, cta: 1 initialized @(2,0)
GPGPU-Sim uArch: core:  3, cta: 1 initialized @(2,0)
GPGPU-Sim uArch: core:  4, cta: 1 initialized @(2,0)
GPGPU-Sim uArch: core:  5, cta: 1 initialized @(2,0)
GPGPU-Sim uArch: core:  6, cta: 1 initialized @(2,0)
GPGPU-Sim uArch: core:  7, cta: 1 initialized @(2,0)
GPGPU-Sim uArch: core:  8, cta: 1 initialized @(2,0)
GPGPU-Sim uArch: core:  9, cta: 1 initialized @(2,0)
GPGPU-Sim uArch: core: 10, cta: 1 initialized @(2,0)
GPGPU-Sim uArch: core: 11, cta: 1 initialized @(2,0)
GPGPU-Sim uArch: core: 12, cta: 1 initialized @(2,0)
GPGPU-Sim uArch: core: 13, cta: 1 initialized @(2,0)
GPGPU-Sim uArch: core: 14, cta: 1 initialized @(2,0)
GPGPU-Sim uArch: core:  0, cta: 1 initialized @(2,0)
GPGPU-Sim uArch: cycles simulated: 500  inst.: 0 (ipc= 0.0) sim_rate=0 (inst/sec) elapsed = 0:0:00:26 / Thu Aug 14 11:03:23 2014
GPGPU-Sim PTX: 100000 instructions simulated : ctaid=(19,0,0) tid=(91,0,0)
GPGPU-Sim PTX: 200000 instructions simulated : ctaid=(8,0,0) tid=(7,0,0)
GPGPU-Sim uArch: cycles simulated: 1000  inst.: 255476 (ipc=255.5) sim_rate=8809 (inst/sec) elapsed = 0:0:00:29 / Thu Aug 14 11:03:26 2014
GPGPU-Sim PTX: 300000 instructions simulated : ctaid=(8,0,0) tid=(411,0,0)
GPGPU-Sim uArch: cycles simulated: 1500  inst.: 337880 (ipc=225.3) sim_rate=10899 (inst/sec) elapsed = 0:0:00:31 / Thu Aug 14 11:03:28 2014
GPGPU-Sim PTX: 400000 instructions simulated : ctaid=(22,0,0) tid=(63,0,0)
GPGPU-Sim uArch: cycles simulated: 2000  inst.: 426874 (ipc=213.4) sim_rate=12935 (inst/sec) elapsed = 0:0:00:33 / Thu Aug 14 11:03:30 2014
GPGPU-Sim PTX: 500000 instructions simulated : ctaid=(29,0,0) tid=(352,0,0)
GPGPU-Sim uArch: cycles simulated: 2500  inst.: 529708 (ipc=211.9) sim_rate=15134 (inst/sec) elapsed = 0:0:00:35 / Thu Aug 14 11:03:32 2014
GPGPU-Sim PTX: 600000 instructions simulated : ctaid=(6,0,0) tid=(59,0,0)
GPGPU-Sim uArch: cycles simulated: 3000  inst.: 611006 (ipc=203.7) sim_rate=16513 (inst/sec) elapsed = 0:0:00:37 / Thu Aug 14 11:03:34 2014
GPGPU-Sim PTX: 700000 instructions simulated : ctaid=(26,0,0) tid=(265,0,0)
GPGPU-Sim uArch: cycles simulated: 3500  inst.: 686318 (ipc=196.1) sim_rate=18061 (inst/sec) elapsed = 0:0:00:38 / Thu Aug 14 11:03:35 2014
GPGPU-Sim uArch: cycles simulated: 4000  inst.: 760414 (ipc=190.1) sim_rate=19010 (inst/sec) elapsed = 0:0:00:40 / Thu Aug 14 11:03:37 2014
GPGPU-Sim PTX: 800000 instructions simulated : ctaid=(22,0,0) tid=(263,0,0)
GPGPU-Sim uArch: cycles simulated: 4500  inst.: 853624 (ipc=189.7) sim_rate=20324 (inst/sec) elapsed = 0:0:00:42 / Thu Aug 14 11:03:39 2014
GPGPU-Sim PTX: 900000 instructions simulated : ctaid=(21,0,0) tid=(284,0,0)
GPGPU-Sim uArch: cycles simulated: 5000  inst.: 964082 (ipc=192.8) sim_rate=21910 (inst/sec) elapsed = 0:0:00:44 / Thu Aug 14 11:03:41 2014
GPGPU-Sim PTX: 1000000 instructions simulated : ctaid=(2,0,0) tid=(389,0,0)
GPGPU-Sim uArch: cycles simulated: 5500  inst.: 1014187 (ipc=184.4) sim_rate=22537 (inst/sec) elapsed = 0:0:00:45 / Thu Aug 14 11:03:42 2014
GPGPU-Sim PTX: 1100000 instructions simulated : ctaid=(25,0,0) tid=(343,0,0)
GPGPU-Sim uArch: cycles simulated: 6000  inst.: 1103230 (ipc=183.9) sim_rate=22983 (inst/sec) elapsed = 0:0:00:48 / Thu Aug 14 11:03:45 2014
GPGPU-Sim uArch: cycles simulated: 6500  inst.: 1152470 (ipc=177.3) sim_rate=23519 (inst/sec) elapsed = 0:0:00:49 / Thu Aug 14 11:03:46 2014
GPGPU-Sim PTX: 1200000 instructions simulated : ctaid=(19,0,0) tid=(318,0,0)
GPGPU-Sim uArch: cycles simulated: 7000  inst.: 1230775 (ipc=175.8) sim_rate=23668 (inst/sec) elapsed = 0:0:00:52 / Thu Aug 14 11:03:49 2014
GPGPU-Sim PTX: 1300000 instructions simulated : ctaid=(11,0,0) tid=(448,0,0)
GPGPU-Sim uArch: cycles simulated: 7500  inst.: 1274370 (ipc=169.9) sim_rate=24044 (inst/sec) elapsed = 0:0:00:53 / Thu Aug 14 11:03:50 2014
GPGPU-Sim uArch: Shader 8 finished CTA #1 (7722,0), 1 CTAs running
GPGPU-Sim uArch: core:  8, cta: 1 initialized @(7723,0)
GPGPU-Sim uArch: Shader 6 finished CTA #0 (7750,0), 1 CTAs running
GPGPU-Sim uArch: core:  6, cta: 0 initialized @(7751,0)
GPGPU-Sim uArch: Shader 7 finished CTA #1 (7752,0), 1 CTAs running
GPGPU-Sim uArch: core:  7, cta: 1 initialized @(7753,0)
GPGPU-Sim uArch: Shader 1 finished CTA #1 (7762,0), 1 CTAs running
GPGPU-Sim uArch: core:  1, cta: 1 initialized @(7763,0)
GPGPU-Sim uArch: Shader 6 finished CTA #1 (7767,0), 1 CTAs running
GPGPU-Sim uArch: core:  6, cta: 1 initialized @(7768,0)
GPGPU-Sim uArch: Shader 12 finished CTA #0 (7768,0), 1 CTAs running
GPGPU-Sim uArch: core: 12, cta: 0 initialized @(7769,0)
GPGPU-Sim uArch: Shader 7 finished CTA #0 (7769,0), 1 CTAs running
GPGPU-Sim uArch: core:  7, cta: 0 initialized @(7770,0)
GPGPU-Sim uArch: Shader 0 finished CTA #0 (7771,0), 1 CTAs running
GPGPU-Sim uArch: core:  0, cta: 0 initialized @(7772,0)
GPGPU-Sim uArch: Shader 5 finished CTA #1 (7774,0), 1 CTAs running
GPGPU-Sim uArch: core:  5, cta: 1 initialized @(7775,0)
GPGPU-Sim uArch: Shader 2 finished CTA #1 (7809,0), 1 CTAs running
GPGPU-Sim uArch: core:  2, cta: 1 initialized @(7810,0)
GPGPU-Sim uArch: Shader 8 finished CTA #0 (7814,0), 1 CTAs running
GPGPU-Sim uArch: core:  8, cta: 0 initialized @(7815,0)
GPGPU-Sim uArch: Shader 9 finished CTA #1 (7816,0), 1 CTAs running
GPGPU-Sim uArch: core:  9, cta: 1 initialized @(7817,0)
GPGPU-Sim uArch: Shader 1 finished CTA #0 (7826,0), 1 CTAs running
GPGPU-Sim uArch: core:  1, cta: 0 initialized @(7827,0)
GPGPU-Sim uArch: Shader 3 finished CTA #0 (7828,0), 1 CTAs running
GPGPU-Sim uArch: core:  3, cta: 0 initialized @(7829,0)
GPGPU-Sim uArch: Shader 12 finished CTA #1 (7834,0), 1 CTAs running
GPGPU-Sim uArch: core: 12, cta: 1 initialized @(7835,0)
GPGPU-Sim uArch: Shader 9 finished CTA #0 (7841,0), 1 CTAs running
GPGPU-Sim uArch: core:  9, cta: 0 initialized @(7842,0)
GPGPU-Sim uArch: Shader 10 finished CTA #1 (7852,0), 1 CTAs running
GPGPU-Sim uArch: core: 10, cta: 1 initialized @(7853,0)
GPGPU-Sim uArch: Shader 14 finished CTA #0 (7855,0), 1 CTAs running
GPGPU-Sim uArch: core: 14, cta: 0 initialized @(7856,0)
GPGPU-Sim uArch: Shader 2 finished CTA #0 (7882,0), 1 CTAs running
GPGPU-Sim uArch: core:  2, cta: 0 initialized @(7883,0)
GPGPU-Sim uArch: Shader 3 finished CTA #1 (7884,0), 1 CTAs running
GPGPU-Sim uArch: core:  3, cta: 1 initialized @(7885,0)
GPGPU-Sim uArch: Shader 14 finished CTA #1 (7886,0), 1 CTAs running
GPGPU-Sim uArch: core: 14, cta: 1 initialized @(7887,0)
GPGPU-Sim uArch: Shader 4 finished CTA #1 (7887,0), 1 CTAs running
GPGPU-Sim uArch: core:  4, cta: 1 initialized @(7888,0)
GPGPU-Sim PTX: 1400000 instructions simulated : ctaid=(30,0,0) tid=(500,0,0)
GPGPU-Sim uArch: Shader 4 finished CTA #0 (7904,0), 1 CTAs running
GPGPU-Sim uArch: core:  4, cta: 0 initialized @(7905,0)
GPGPU-Sim uArch: Shader 11 finished CTA #1 (7906,0), 1 CTAs running
GPGPU-Sim uArch: core: 11, cta: 1 initialized @(7907,0)
GPGPU-Sim uArch: Shader 11 finished CTA #0 (7941,0), 1 CTAs running
GPGPU-Sim uArch: core: 11, cta: 0 initialized @(7942,0)
GPGPU-Sim uArch: Shader 10 finished CTA #0 (7959,0), 1 CTAs running
GPGPU-Sim uArch: core: 10, cta: 0 initialized @(7960,0)
GPGPU-Sim uArch: Shader 13 finished CTA #0 (7971,0), 1 CTAs running
GPGPU-Sim uArch: core: 13, cta: 0 initialized @(7972,0)
GPGPU-Sim uArch: cycles simulated: 8000  inst.: 1425862 (ipc=178.2) sim_rate=25461 (inst/sec) elapsed = 0:0:00:56 / Thu Aug 14 11:03:53 2014
GPGPU-Sim uArch: Shader 13 finished CTA #1 (8006,0), 1 CTAs running
GPGPU-Sim uArch: core: 13, cta: 1 initialized @(8007,0)
GPGPU-Sim PTX: 1500000 instructions simulated : ctaid=(51,0,0) tid=(1,0,0)
GPGPU-Sim uArch: Shader 0 finished CTA #1 (8033,0), 1 CTAs running
GPGPU-Sim uArch: core:  0, cta: 1 initialized @(8034,0)
GPGPU-Sim uArch: Shader 5 finished CTA #0 (8074,0), 1 CTAs running
GPGPU-Sim uArch: core:  5, cta: 0 initialized @(8075,0)
GPGPU-Sim PTX: 1600000 instructions simulated : ctaid=(48,0,0) tid=(213,0,0)
GPGPU-Sim PTX: 1700000 instructions simulated : ctaid=(54,0,0) tid=(112,0,0)
GPGPU-Sim uArch: cycles simulated: 8500  inst.: 1691992 (ipc=199.1) sim_rate=28199 (inst/sec) elapsed = 0:0:01:00 / Thu Aug 14 11:03:57 2014
GPGPU-Sim PTX: 1800000 instructions simulated : ctaid=(35,0,0) tid=(221,0,0)
GPGPU-Sim PTX: 1900000 instructions simulated : ctaid=(52,0,0) tid=(385,0,0)
GPGPU-Sim uArch: cycles simulated: 9000  inst.: 1878953 (ipc=208.8) sim_rate=29824 (inst/sec) elapsed = 0:0:01:03 / Thu Aug 14 11:04:00 2014
GPGPU-Sim PTX: 2000000 instructions simulated : ctaid=(36,0,0) tid=(92,0,0)
GPGPU-Sim uArch: cycles simulated: 9500  inst.: 1964970 (ipc=206.8) sim_rate=30702 (inst/sec) elapsed = 0:0:01:04 / Thu Aug 14 11:04:01 2014
GPGPU-Sim PTX: 2100000 instructions simulated : ctaid=(56,0,0) tid=(501,0,0)
GPGPU-Sim uArch: cycles simulated: 10000  inst.: 2056953 (ipc=205.7) sim_rate=30700 (inst/sec) elapsed = 0:0:01:07 / Thu Aug 14 11:04:04 2014
GPGPU-Sim PTX: 2200000 instructions simulated : ctaid=(34,0,0) tid=(482,0,0)
GPGPU-Sim uArch: cycles simulated: 10500  inst.: 2198193 (ipc=209.4) sim_rate=31857 (inst/sec) elapsed = 0:0:01:09 / Thu Aug 14 11:04:06 2014
GPGPU-Sim PTX: 2300000 instructions simulated : ctaid=(57,0,0) tid=(99,0,0)
GPGPU-Sim uArch: cycles simulated: 11000  inst.: 2277182 (ipc=207.0) sim_rate=32072 (inst/sec) elapsed = 0:0:01:11 / Thu Aug 14 11:04:08 2014
GPGPU-Sim PTX: 2400000 instructions simulated : ctaid=(45,0,0) tid=(388,0,0)
GPGPU-Sim uArch: cycles simulated: 11500  inst.: 2359227 (ipc=205.2) sim_rate=32318 (inst/sec) elapsed = 0:0:01:13 / Thu Aug 14 11:04:10 2014
GPGPU-Sim PTX: 2500000 instructions simulated : ctaid=(52,0,0) tid=(299,0,0)
GPGPU-Sim uArch: cycles simulated: 12000  inst.: 2424288 (ipc=202.0) sim_rate=32323 (inst/sec) elapsed = 0:0:01:15 / Thu Aug 14 11:04:12 2014
GPGPU-Sim uArch: cycles simulated: 12500  inst.: 2500159 (ipc=200.0) sim_rate=32469 (inst/sec) elapsed = 0:0:01:17 / Thu Aug 14 11:04:14 2014
GPGPU-Sim PTX: 2600000 instructions simulated : ctaid=(51,0,0) tid=(91,0,0)
GPGPU-Sim uArch: cycles simulated: 13000  inst.: 2558988 (ipc=196.8) sim_rate=32392 (inst/sec) elapsed = 0:0:01:19 / Thu Aug 14 11:04:16 2014
GPGPU-Sim uArch: Shader 8 finished CTA #1 (13119,0), 1 CTAs running
GPGPU-Sim uArch: core:  8, cta: 1 initialized @(13120,0)
GPGPU-Sim uArch: Shader 3 finished CTA #0 (13184,0), 1 CTAs running
GPGPU-Sim uArch: core:  3, cta: 0 initialized @(13185,0)
GPGPU-Sim uArch: Shader 9 finished CTA #1 (13200,0), 1 CTAs running
GPGPU-Sim uArch: core:  9, cta: 1 initialized @(13201,0)
GPGPU-Sim uArch: Shader 1 finished CTA #1 (13202,0), 1 CTAs running
GPGPU-Sim uArch: core:  1, cta: 1 initialized @(13203,0)
GPGPU-Sim uArch: Shader 7 finished CTA #1 (13204,0), 1 CTAs running
GPGPU-Sim uArch: core:  7, cta: 1 initialized @(13205,0)
GPGPU-Sim uArch: Shader 11 finished CTA #0 (13208,0), 1 CTAs running
GPGPU-Sim uArch: core: 11, cta: 0 initialized @(13209,0)
GPGPU-Sim uArch: Shader 9 finished CTA #0 (13217,0), 1 CTAs running
GPGPU-Sim uArch: core:  9, cta: 0 initialized @(13218,0)
GPGPU-Sim uArch: Shader 7 finished CTA #0 (13221,0), 1 CTAs running
GPGPU-Sim uArch: core:  7, cta: 0 initialized @(13222,0)
GPGPU-Sim uArch: Shader 4 finished CTA #0 (13228,0), 1 CTAs running
GPGPU-Sim uArch: core:  4, cta: 0 initialized @(13229,0)
GPGPU-Sim uArch: Shader 1 finished CTA #0 (13240,0), 1 CTAs running
GPGPU-Sim uArch: core:  1, cta: 0 initialized @(13241,0)
GPGPU-Sim uArch: Shader 11 finished CTA #1 (13267,0), 1 CTAs running
GPGPU-Sim uArch: core: 11, cta: 1 initialized @(13268,0)
GPGPU-Sim uArch: Shader 12 finished CTA #0 (13314,0), 1 CTAs running
GPGPU-Sim uArch: core: 12, cta: 0 initialized @(13315,0)
GPGPU-Sim PTX: 2700000 instructions simulated : ctaid=(67,0,0) tid=(1,0,0)
GPGPU-Sim uArch: Shader 6 finished CTA #1 (13351,0), 1 CTAs running
GPGPU-Sim uArch: core:  6, cta: 1 initialized @(13352,0)
GPGPU-Sim uArch: Shader 0 finished CTA #0 (13355,0), 1 CTAs running
GPGPU-Sim uArch: core:  0, cta: 0 initialized @(13356,0)
GPGPU-Sim uArch: Shader 6 finished CTA #0 (13368,0), 1 CTAs running
GPGPU-Sim uArch: core:  6, cta: 0 initialized @(13369,0)
GPGPU-Sim uArch: Shader 12 finished CTA #1 (13373,0), 1 CTAs running
GPGPU-Sim uArch: core: 12, cta: 1 initialized @(13374,0)
GPGPU-Sim uArch: cycles simulated: 13500  inst.: 2699973 (ipc=200.0) sim_rate=32926 (inst/sec) elapsed = 0:0:01:22 / Thu Aug 14 11:04:19 2014
GPGPU-Sim PTX: 2800000 instructions simulated : ctaid=(71,0,0) tid=(55,0,0)
GPGPU-Sim uArch: Shader 3 finished CTA #1 (13568,0), 1 CTAs running
GPGPU-Sim uArch: core:  3, cta: 1 initialized @(13569,0)
GPGPU-Sim uArch: Shader 13 finished CTA #0 (13572,0), 1 CTAs running
GPGPU-Sim uArch: core: 13, cta: 0 initialized @(13573,0)
GPGPU-Sim uArch: Shader 8 finished CTA #0 (13573,0), 1 CTAs running
GPGPU-Sim uArch: core:  8, cta: 0 initialized @(13574,0)
GPGPU-Sim uArch: Shader 5 finished CTA #1 (13574,0), 1 CTAs running
GPGPU-Sim uArch: core:  5, cta: 1 initialized @(13575,0)
GPGPU-Sim uArch: Shader 14 finished CTA #0 (13578,0), 1 CTAs running
GPGPU-Sim uArch: core: 14, cta: 0 initialized @(13579,0)
GPGPU-Sim uArch: Shader 4 finished CTA #1 (13580,0), 1 CTAs running
GPGPU-Sim uArch: core:  4, cta: 1 initialized @(13581,0)
GPGPU-Sim uArch: Shader 13 finished CTA #1 (13589,0), 1 CTAs running
GPGPU-Sim uArch: core: 13, cta: 1 initialized @(13590,0)
GPGPU-Sim PTX: 2900000 instructions simulated : ctaid=(78,0,0) tid=(341,0,0)
GPGPU-Sim uArch: Shader 5 finished CTA #0 (13853,0), 1 CTAs running
GPGPU-Sim uArch: core:  5, cta: 0 initialized @(13854,0)
GPGPU-Sim uArch: Shader 0 finished CTA #1 (13891,0), 1 CTAs running
GPGPU-Sim uArch: core:  0, cta: 1 initialized @(13892,0)
GPGPU-Sim uArch: Shader 10 finished CTA #1 (13958,0), 1 CTAs running
GPGPU-Sim uArch: core: 10, cta: 1 initialized @(13959,0)
GPGPU-Sim PTX: 3000000 instructions simulated : ctaid=(85,0,0) tid=(286,0,0)
GPGPU-Sim uArch: Shader 10 finished CTA #0 (13994,0), 1 CTAs running
GPGPU-Sim uArch: core: 10, cta: 0 initialized @(13995,0)
GPGPU-Sim uArch: cycles simulated: 14000  inst.: 2902561 (ipc=207.3) sim_rate=33750 (inst/sec) elapsed = 0:0:01:26 / Thu Aug 14 11:04:23 2014
GPGPU-Sim uArch: Shader 2 finished CTA #0 (14137,0), 1 CTAs running
GPGPU-Sim uArch: core:  2, cta: 0 initialized @(14138,0)
GPGPU-Sim uArch: Shader 14 finished CTA #1 (14214,0), 1 CTAs running
GPGPU-Sim uArch: core: 14, cta: 1 initialized @(14215,0)
GPGPU-Sim uArch: Shader 2 finished CTA #1 (14236,0), 1 CTAs running
GPGPU-Sim uArch: core:  2, cta: 1 initialized @(14237,0)
GPGPU-Sim PTX: 3100000 instructions simulated : ctaid=(78,0,0) tid=(86,0,0)
GPGPU-Sim PTX: 3200000 instructions simulated : ctaid=(80,0,0) tid=(389,0,0)
GPGPU-Sim uArch: cycles simulated: 14500  inst.: 3111057 (ipc=214.6) sim_rate=34955 (inst/sec) elapsed = 0:0:01:29 / Thu Aug 14 11:04:26 2014
GPGPU-Sim PTX: 3300000 instructions simulated : ctaid=(63,0,0) tid=(244,0,0)
GPGPU-Sim uArch: cycles simulated: 15000  inst.: 3229525 (ipc=215.3) sim_rate=35489 (inst/sec) elapsed = 0:0:01:31 / Thu Aug 14 11:04:28 2014
GPGPU-Sim PTX: 3400000 instructions simulated : ctaid=(82,0,0) tid=(78,0,0)
GPGPU-Sim uArch: cycles simulated: 15500  inst.: 3334154 (ipc=215.1) sim_rate=35851 (inst/sec) elapsed = 0:0:01:33 / Thu Aug 14 11:04:30 2014
GPGPU-Sim PTX: 3500000 instructions simulated : ctaid=(70,0,0) tid=(317,0,0)
GPGPU-Sim uArch: cycles simulated: 16000  inst.: 3468735 (ipc=216.8) sim_rate=36513 (inst/sec) elapsed = 0:0:01:35 / Thu Aug 14 11:04:32 2014
GPGPU-Sim PTX: 3600000 instructions simulated : ctaid=(77,0,0) tid=(95,0,0)
GPGPU-Sim uArch: cycles simulated: 16500  inst.: 3561514 (ipc=215.8) sim_rate=37099 (inst/sec) elapsed = 0:0:01:36 / Thu Aug 14 11:04:33 2014
GPGPU-Sim PTX: 3700000 instructions simulated : ctaid=(74,0,0) tid=(85,0,0)
GPGPU-Sim uArch: cycles simulated: 17000  inst.: 3643547 (ipc=214.3) sim_rate=37179 (inst/sec) elapsed = 0:0:01:38 / Thu Aug 14 11:04:35 2014
GPGPU-Sim PTX: 3800000 instructions simulated : ctaid=(78,0,0) tid=(75,0,0)
GPGPU-Sim uArch: cycles simulated: 17500  inst.: 3717979 (ipc=212.5) sim_rate=37179 (inst/sec) elapsed = 0:0:01:40 / Thu Aug 14 11:04:37 2014
GPGPU-Sim PTX: 3900000 instructions simulated : ctaid=(75,0,0) tid=(53,0,0)
GPGPU-Sim uArch: cycles simulated: 18000  inst.: 3788951 (ipc=210.5) sim_rate=37514 (inst/sec) elapsed = 0:0:01:41 / Thu Aug 14 11:04:38 2014
GPGPU-Sim uArch: cycles simulated: 18500  inst.: 3845505 (ipc=207.9) sim_rate=37335 (inst/sec) elapsed = 0:0:01:43 / Thu Aug 14 11:04:40 2014
GPGPU-Sim uArch: Shader 1 finished CTA #1 (18616,0), 1 CTAs running
GPGPU-Sim uArch: core:  1, cta: 1 initialized @(18617,0)
GPGPU-Sim PTX: 4000000 instructions simulated : ctaid=(90,0,0) tid=(93,0,0)
GPGPU-Sim uArch: Shader 7 finished CTA #1 (18824,0), 1 CTAs running
GPGPU-Sim uArch: core:  7, cta: 1 initialized @(18825,0)
GPGPU-Sim uArch: Shader 14 finished CTA #1 (18826,0), 1 CTAs running
GPGPU-Sim uArch: core: 14, cta: 1 initialized @(18827,0)
GPGPU-Sim uArch: Shader 6 finished CTA #1 (18902,0), 1 CTAs running
GPGPU-Sim uArch: core:  6, cta: 1 initialized @(18903,0)
GPGPU-Sim uArch: Shader 11 finished CTA #1 (18922,0), 1 CTAs running
GPGPU-Sim uArch: core: 11, cta: 1 initialized @(18923,0)
GPGPU-Sim uArch: Shader 7 finished CTA #0 (18923,0), 1 CTAs running
GPGPU-Sim uArch: core:  7, cta: 0 initialized @(18924,0)
GPGPU-Sim uArch: Shader 0 finished CTA #0 (18924,0), 1 CTAs running
GPGPU-Sim uArch: core:  0, cta: 0 initialized @(18925,0)
GPGPU-Sim uArch: Shader 11 finished CTA #0 (18939,0), 1 CTAs running
GPGPU-Sim uArch: core: 11, cta: 0 initialized @(18940,0)
GPGPU-Sim uArch: Shader 8 finished CTA #1 (18950,0), 1 CTAs running
GPGPU-Sim uArch: core:  8, cta: 1 initialized @(18951,0)
GPGPU-Sim uArch: Shader 12 finished CTA #1 (18998,0), 1 CTAs running
GPGPU-Sim uArch: core: 12, cta: 1 initialized @(18999,0)
GPGPU-Sim uArch: cycles simulated: 19000  inst.: 3927855 (ipc=206.7) sim_rate=37408 (inst/sec) elapsed = 0:0:01:45 / Thu Aug 14 11:04:42 2014
GPGPU-Sim uArch: Shader 6 finished CTA #0 (19033,0), 1 CTAs running
GPGPU-Sim uArch: core:  6, cta: 0 initialized @(19034,0)
GPGPU-Sim uArch: Shader 5 finished CTA #1 (19081,0), 1 CTAs running
GPGPU-Sim uArch: core:  5, cta: 1 initialized @(19082,0)
GPGPU-Sim uArch: Shader 4 finished CTA #0 (19083,0), 1 CTAs running
GPGPU-Sim uArch: core:  4, cta: 0 initialized @(19084,0)
GPGPU-Sim uArch: Shader 14 finished CTA #0 (19085,0), 1 CTAs running
GPGPU-Sim uArch: core: 14, cta: 0 initialized @(19086,0)
GPGPU-Sim uArch: Shader 13 finished CTA #1 (19087,0), 1 CTAs running
GPGPU-Sim uArch: core: 13, cta: 1 initialized @(19088,0)
GPGPU-Sim uArch: Shader 12 finished CTA #0 (19106,0), 1 CTAs running
GPGPU-Sim uArch: core: 12, cta: 0 initialized @(19107,0)
GPGPU-Sim PTX: 4100000 instructions simulated : ctaid=(102,0,0) tid=(385,0,0)
GPGPU-Sim uArch: Shader 0 finished CTA #1 (19162,0), 1 CTAs running
GPGPU-Sim uArch: core:  0, cta: 1 initialized @(19163,0)
GPGPU-Sim uArch: Shader 3 finished CTA #0 (19175,0), 1 CTAs running
GPGPU-Sim uArch: core:  3, cta: 0 initialized @(19176,0)
GPGPU-Sim uArch: Shader 1 finished CTA #0 (19224,0), 1 CTAs running
GPGPU-Sim uArch: core:  1, cta: 0 initialized @(19225,0)
GPGPU-Sim uArch: Shader 4 finished CTA #1 (19228,0), 1 CTAs running
GPGPU-Sim uArch: core:  4, cta: 1 initialized @(19229,0)
GPGPU-Sim uArch: Shader 3 finished CTA #1 (19283,0), 1 CTAs running
GPGPU-Sim uArch: core:  3, cta: 1 initialized @(19284,0)
GPGPU-Sim PTX: 4200000 instructions simulated : ctaid=(105,0,0) tid=(144,0,0)
GPGPU-Sim uArch: Shader 8 finished CTA #0 (19304,0), 1 CTAs running
GPGPU-Sim uArch: core:  8, cta: 0 initialized @(19305,0)
GPGPU-Sim uArch: Shader 9 finished CTA #1 (19321,0), 1 CTAs running
GPGPU-Sim uArch: core:  9, cta: 1 initialized @(19322,0)
GPGPU-Sim uArch: Shader 9 finished CTA #0 (19380,0), 1 CTAs running
GPGPU-Sim uArch: core:  9, cta: 0 initialized @(19381,0)
GPGPU-Sim uArch: Shader 10 finished CTA #0 (19437,0), 1 CTAs running
GPGPU-Sim uArch: core: 10, cta: 0 initialized @(19438,0)
GPGPU-Sim uArch: Shader 2 finished CTA #0 (19453,0), 1 CTAs running
GPGPU-Sim uArch: core:  2, cta: 0 initialized @(19454,0)
GPGPU-Sim uArch: Shader 10 finished CTA #1 (19496,0), 1 CTAs running
GPGPU-Sim uArch: core: 10, cta: 1 initialized @(19497,0)
GPGPU-Sim uArch: cycles simulated: 19500  inst.: 4157177 (ipc=213.2) sim_rate=38139 (inst/sec) elapsed = 0:0:01:49 / Thu Aug 14 11:04:46 2014
GPGPU-Sim PTX: 4300000 instructions simulated : ctaid=(95,0,0) tid=(408,0,0)
GPGPU-Sim uArch: Shader 2 finished CTA #1 (19575,0), 1 CTAs running
GPGPU-Sim uArch: core:  2, cta: 1 initialized @(19576,0)
GPGPU-Sim uArch: Shader 13 finished CTA #0 (19693,0), 1 CTAs running
GPGPU-Sim uArch: core: 13, cta: 0 initialized @(19694,0)
GPGPU-Sim uArch: Shader 5 finished CTA #0 (19711,0), 1 CTAs running
GPGPU-Sim uArch: core:  5, cta: 0 initialized @(19712,0)
GPGPU-Sim PTX: 4400000 instructions simulated : ctaid=(114,0,0) tid=(481,0,0)
GPGPU-Sim uArch: cycles simulated: 20000  inst.: 4352245 (ipc=217.6) sim_rate=38859 (inst/sec) elapsed = 0:0:01:52 / Thu Aug 14 11:04:49 2014
GPGPU-Sim PTX: 4500000 instructions simulated : ctaid=(94,0,0) tid=(255,0,0)
GPGPU-Sim PTX: 4600000 instructions simulated : ctaid=(116,0,0) tid=(348,0,0)
GPGPU-Sim uArch: cycles simulated: 20500  inst.: 4501191 (ipc=219.6) sim_rate=39484 (inst/sec) elapsed = 0:0:01:54 / Thu Aug 14 11:04:51 2014
GPGPU-Sim PTX: 4700000 instructions simulated : ctaid=(91,0,0) tid=(458,0,0)
GPGPU-Sim uArch: cycles simulated: 21000  inst.: 4616227 (ipc=219.8) sim_rate=39795 (inst/sec) elapsed = 0:0:01:56 / Thu Aug 14 11:04:53 2014
GPGPU-Sim PTX: 4800000 instructions simulated : ctaid=(117,0,0) tid=(348,0,0)
GPGPU-Sim uArch: cycles simulated: 21500  inst.: 4710497 (ipc=219.1) sim_rate=39919 (inst/sec) elapsed = 0:0:01:58 / Thu Aug 14 11:04:55 2014
GPGPU-Sim PTX: 4900000 instructions simulated : ctaid=(101,0,0) tid=(193,0,0)
GPGPU-Sim uArch: cycles simulated: 22000  inst.: 4850926 (ipc=220.5) sim_rate=40090 (inst/sec) elapsed = 0:0:02:01 / Thu Aug 14 11:04:58 2014
GPGPU-Sim PTX: 5000000 instructions simulated : ctaid=(117,0,0) tid=(440,0,0)
GPGPU-Sim uArch: cycles simulated: 22500  inst.: 4931272 (ipc=219.2) sim_rate=40420 (inst/sec) elapsed = 0:0:02:02 / Thu Aug 14 11:04:59 2014
GPGPU-Sim PTX: 5100000 instructions simulated : ctaid=(108,0,0) tid=(235,0,0)
GPGPU-Sim uArch: cycles simulated: 23000  inst.: 5002968 (ipc=217.5) sim_rate=40346 (inst/sec) elapsed = 0:0:02:04 / Thu Aug 14 11:05:01 2014
GPGPU-Sim PTX: 5200000 instructions simulated : ctaid=(100,0,0) tid=(127,0,0)
GPGPU-Sim uArch: cycles simulated: 23500  inst.: 5066246 (ipc=215.6) sim_rate=40208 (inst/sec) elapsed = 0:0:02:06 / Thu Aug 14 11:05:03 2014
GPGPU-Sim uArch: Shader 7 finished CTA #1 (23581,0), 1 CTAs running
GPGPU-Sim uArch: core:  7, cta: 1 initialized @(23582,0)
GPGPU-Sim uArch: Shader 7 finished CTA #0 (23620,0), 1 CTAs running
GPGPU-Sim uArch: core:  7, cta: 0 initialized @(23621,0)
GPGPU-Sim PTX: 5300000 instructions simulated : ctaid=(120,0,0) tid=(349,0,0)
GPGPU-Sim uArch: cycles simulated: 24000  inst.: 5154142 (ipc=214.8) sim_rate=40266 (inst/sec) elapsed = 0:0:02:08 / Thu Aug 14 11:05:05 2014
GPGPU-Sim uArch: Shader 1 finished CTA #1 (24244,0), 1 CTAs running
GPGPU-Sim uArch: core:  1, cta: 1 initialized @(24245,0)
GPGPU-Sim uArch: Shader 6 finished CTA #0 (24340,0), 1 CTAs running
GPGPU-Sim uArch: core:  6, cta: 0 initialized @(24341,0)
GPGPU-Sim uArch: Shader 12 finished CTA #0 (24342,0), 1 CTAs running
GPGPU-Sim uArch: core: 12, cta: 0 initialized @(24343,0)
GPGPU-Sim uArch: Shader 13 finished CTA #1 (24344,0), 1 CTAs running
GPGPU-Sim uArch: core: 13, cta: 1 initialized @(24345,0)
GPGPU-Sim uArch: Shader 5 finished CTA #1 (24395,0), 1 CTAs running
GPGPU-Sim uArch: core:  5, cta: 1 initialized @(24396,0)
GPGPU-Sim uArch: Shader 0 finished CTA #0 (24408,0), 1 CTAs running
GPGPU-Sim uArch: core:  0, cta: 0 initialized @(24409,0)
GPGPU-Sim PTX: 5400000 instructions simulated : ctaid=(126,0,0) tid=(40,0,0)
GPGPU-Sim uArch: Shader 14 finished CTA #1 (24499,0), 1 CTAs running
GPGPU-Sim uArch: core: 14, cta: 1 initialized @(24500,0)
GPGPU-Sim uArch: cycles simulated: 24500  inst.: 5244538 (ipc=214.1) sim_rate=40342 (inst/sec) elapsed = 0:0:02:10 / Thu Aug 14 11:05:07 2014
GPGPU-Sim uArch: Shader 3 finished CTA #0 (24527,0), 1 CTAs running
GPGPU-Sim uArch: core:  3, cta: 0 initialized @(24528,0)
GPGPU-Sim uArch: Shader 5 finished CTA #0 (24533,0), 1 CTAs running
GPGPU-Sim uArch: core:  5, cta: 0 initialized @(24534,0)
GPGPU-Sim uArch: Shader 12 finished CTA #1 (24555,0), 1 CTAs running
GPGPU-Sim uArch: core: 12, cta: 1 initialized @(24556,0)
GPGPU-Sim uArch: Shader 13 finished CTA #0 (24584,0), 1 CTAs running
GPGPU-Sim uArch: core: 13, cta: 0 initialized @(24585,0)
GPGPU-Sim uArch: Shader 0 finished CTA #1 (24591,0), 1 CTAs running
GPGPU-Sim uArch: core:  0, cta: 1 initialized @(24592,0)
GPGPU-Sim uArch: Shader 10 finished CTA #1 (24593,0), 1 CTAs running
GPGPU-Sim uArch: core: 10, cta: 1 initialized @(24594,0)
GPGPU-Sim uArch: Shader 14 finished CTA #0 (24607,0), 1 CTAs running
GPGPU-Sim uArch: core: 14, cta: 0 initialized @(24608,0)
GPGPU-Sim uArch: Shader 3 finished CTA #1 (24619,0), 1 CTAs running
GPGPU-Sim uArch: core:  3, cta: 1 initialized @(24620,0)
GPGPU-Sim uArch: Shader 11 finished CTA #1 (24703,0), 1 CTAs running
GPGPU-Sim uArch: core: 11, cta: 1 initialized @(24704,0)
GPGPU-Sim uArch: Shader 8 finished CTA #1 (24705,0), 1 CTAs running
GPGPU-Sim uArch: core:  8, cta: 1 initialized @(24706,0)
GPGPU-Sim PTX: 5500000 instructions simulated : ctaid=(130,0,0) tid=(121,0,0)
GPGPU-Sim uArch: Shader 1 finished CTA #0 (24730,0), 1 CTAs running
GPGPU-Sim uArch: core:  1, cta: 0 initialized @(24731,0)
GPGPU-Sim uArch: Shader 8 finished CTA #0 (24786,0), 1 CTAs running
GPGPU-Sim uArch: core:  8, cta: 0 initialized @(24787,0)
GPGPU-Sim uArch: Shader 4 finished CTA #0 (24793,0), 1 CTAs running
GPGPU-Sim uArch: core:  4, cta: 0 initialized @(24794,0)
GPGPU-Sim uArch: Shader 11 finished CTA #0 (24834,0), 1 CTAs running
GPGPU-Sim uArch: core: 11, cta: 0 initialized @(24835,0)
GPGPU-Sim uArch: Shader 4 finished CTA #1 (24859,0), 1 CTAs running
GPGPU-Sim uArch: core:  4, cta: 1 initialized @(24860,0)
GPGPU-Sim uArch: Shader 6 finished CTA #1 (24882,0), 1 CTAs running
GPGPU-Sim uArch: core:  6, cta: 1 initialized @(24883,0)
GPGPU-Sim PTX: 5600000 instructions simulated : ctaid=(131,0,0) tid=(252,0,0)
GPGPU-Sim uArch: Shader 2 finished CTA #1 (24980,0), 1 CTAs running
GPGPU-Sim uArch: core:  2, cta: 1 initialized @(24981,0)
GPGPU-Sim uArch: cycles simulated: 25000  inst.: 5472421 (ipc=218.9) sim_rate=40536 (inst/sec) elapsed = 0:0:02:15 / Thu Aug 14 11:05:12 2014
GPGPU-Sim uArch: Shader 2 finished CTA #0 (25088,0), 1 CTAs running
GPGPU-Sim uArch: core:  2, cta: 0 initialized @(25089,0)
GPGPU-Sim PTX: 5700000 instructions simulated : ctaid=(125,0,0) tid=(275,0,0)
GPGPU-Sim uArch: Shader 9 finished CTA #1 (25351,0), 1 CTAs running
GPGPU-Sim uArch: core:  9, cta: 1 initialized @(25352,0)
GPGPU-Sim PTX: 5800000 instructions simulated : ctaid=(121,0,0) tid=(316,0,0)
GPGPU-Sim uArch: cycles simulated: 25500  inst.: 5634740 (ipc=221.0) sim_rate=40831 (inst/sec) elapsed = 0:0:02:18 / Thu Aug 14 11:05:15 2014
GPGPU-Sim uArch: Shader 9 finished CTA #0 (25588,0), 1 CTAs running
GPGPU-Sim uArch: core:  9, cta: 0 initialized @(25589,0)
GPGPU-Sim uArch: Shader 10 finished CTA #0 (25674,0), 1 CTAs running
GPGPU-Sim uArch: core: 10, cta: 0 initialized @(25675,0)
GPGPU-Sim PTX: 5900000 instructions simulated : ctaid=(138,0,0) tid=(41,0,0)
GPGPU-Sim uArch: cycles simulated: 26000  inst.: 5806867 (ipc=223.3) sim_rate=41477 (inst/sec) elapsed = 0:0:02:20 / Thu Aug 14 11:05:17 2014
GPGPU-Sim PTX: 6000000 instructions simulated : ctaid=(149,0,0) tid=(124,0,0)
GPGPU-Sim uArch: cycles simulated: 26500  inst.: 5915981 (ipc=223.2) sim_rate=41370 (inst/sec) elapsed = 0:0:02:23 / Thu Aug 14 11:05:20 2014
GPGPU-Sim PTX: 6100000 instructions simulated : ctaid=(133,0,0) tid=(15,0,0)
GPGPU-Sim uArch: cycles simulated: 27000  inst.: 6007698 (ipc=222.5) sim_rate=41432 (inst/sec) elapsed = 0:0:02:25 / Thu Aug 14 11:05:22 2014
GPGPU-Sim PTX: 6200000 instructions simulated : ctaid=(133,0,0) tid=(85,0,0)
GPGPU-Sim PTX: 6300000 instructions simulated : ctaid=(123,0,0) tid=(484,0,0)
GPGPU-Sim uArch: cycles simulated: 27500  inst.: 6139062 (ipc=223.2) sim_rate=41762 (inst/sec) elapsed = 0:0:02:27 / Thu Aug 14 11:05:24 2014
GPGPU-Sim PTX: 6400000 instructions simulated : ctaid=(124,0,0) tid=(156,0,0)
GPGPU-Sim uArch: cycles simulated: 28000  inst.: 6216790 (ipc=222.0) sim_rate=41723 (inst/sec) elapsed = 0:0:02:29 / Thu Aug 14 11:05:26 2014
GPGPU-Sim PTX: 6500000 instructions simulated : ctaid=(129,0,0) tid=(345,0,0)
GPGPU-Sim uArch: cycles simulated: 28500  inst.: 6300222 (ipc=221.1) sim_rate=41723 (inst/sec) elapsed = 0:0:02:31 / Thu Aug 14 11:05:28 2014
GPGPU-Sim uArch: cycles simulated: 29000  inst.: 6361789 (ipc=219.4) sim_rate=41580 (inst/sec) elapsed = 0:0:02:33 / Thu Aug 14 11:05:30 2014
GPGPU-Sim PTX: 6600000 instructions simulated : ctaid=(145,0,0) tid=(215,0,0)
GPGPU-Sim uArch: Shader 7 finished CTA #1 (29269,0), 1 CTAs running
GPGPU-Sim uArch: core:  7, cta: 1 initialized @(29270,0)
GPGPU-Sim uArch: Shader 7 finished CTA #0 (29286,0), 1 CTAs running
GPGPU-Sim uArch: core:  7, cta: 0 initialized @(29287,0)
GPGPU-Sim uArch: cycles simulated: 29500  inst.: 6436629 (ipc=218.2) sim_rate=41526 (inst/sec) elapsed = 0:0:02:35 / Thu Aug 14 11:05:32 2014
GPGPU-Sim uArch: Shader 1 finished CTA #1 (29663,0), 1 CTAs running
GPGPU-Sim uArch: core:  1, cta: 1 initialized @(29664,0)
GPGPU-Sim PTX: 6700000 instructions simulated : ctaid=(132,0,0) tid=(9,0,0)
GPGPU-Sim uArch: Shader 12 finished CTA #0 (29855,0), 1 CTAs running
GPGPU-Sim uArch: core: 12, cta: 0 initialized @(29856,0)
GPGPU-Sim uArch: Shader 13 finished CTA #1 (29948,0), 1 CTAs running
GPGPU-Sim uArch: core: 13, cta: 1 initialized @(29949,0)
GPGPU-Sim uArch: cycles simulated: 30000  inst.: 6518323 (ipc=217.3) sim_rate=41255 (inst/sec) elapsed = 0:0:02:38 / Thu Aug 14 11:05:35 2014
GPGPU-Sim uArch: Shader 1 finished CTA #0 (30015,0), 1 CTAs running
GPGPU-Sim uArch: core:  1, cta: 0 initialized @(30016,0)
GPGPU-Sim uArch: Shader 14 finished CTA #0 (30032,0), 1 CTAs running
GPGPU-Sim uArch: core: 14, cta: 0 initialized @(30033,0)
GPGPU-Sim uArch: Shader 10 finished CTA #1 (30034,0), 1 CTAs running
GPGPU-Sim uArch: core: 10, cta: 1 initialized @(30035,0)
GPGPU-Sim uArch: Shader 12 finished CTA #1 (30039,0), 1 CTAs running
GPGPU-Sim uArch: core: 12, cta: 1 initialized @(30040,0)
GPGPU-Sim uArch: Shader 4 finished CTA #0 (30041,0), 1 CTAs running
GPGPU-Sim uArch: core:  4, cta: 0 initialized @(30042,0)
GPGPU-Sim uArch: Shader 8 finished CTA #1 (30058,0), 1 CTAs running
GPGPU-Sim uArch: core:  8, cta: 1 initialized @(30059,0)
GPGPU-Sim uArch: Shader 4 finished CTA #1 (30076,0), 1 CTAs running
GPGPU-Sim uArch: core:  4, cta: 1 initialized @(30077,0)
GPGPU-Sim uArch: Shader 11 finished CTA #1 (30193,0), 1 CTAs running
GPGPU-Sim uArch: core: 11, cta: 1 initialized @(30194,0)
GPGPU-Sim uArch: Shader 14 finished CTA #1 (30194,0), 1 CTAs running
GPGPU-Sim uArch: core: 14, cta: 1 initialized @(30195,0)
GPGPU-Sim uArch: Shader 5 finished CTA #0 (30195,0), 1 CTAs running
GPGPU-Sim uArch: core:  5, cta: 0 initialized @(30196,0)
GPGPU-Sim uArch: Shader 8 finished CTA #0 (30202,0), 1 CTAs running
GPGPU-Sim uArch: core:  8, cta: 0 initialized @(30203,0)
GPGPU-Sim PTX: 6800000 instructions simulated : ctaid=(164,0,0) tid=(140,0,0)
GPGPU-Sim uArch: Shader 5 finished CTA #1 (30230,0), 1 CTAs running
GPGPU-Sim uArch: core:  5, cta: 1 initialized @(30231,0)
GPGPU-Sim uArch: Shader 2 finished CTA #0 (30234,0), 1 CTAs running
GPGPU-Sim uArch: core:  2, cta: 0 initialized @(30235,0)
GPGPU-Sim uArch: Shader 2 finished CTA #1 (30251,0), 1 CTAs running
GPGPU-Sim uArch: core:  2, cta: 1 initialized @(30252,0)
GPGPU-Sim uArch: Shader 3 finished CTA #1 (30324,0), 1 CTAs running
GPGPU-Sim uArch: core:  3, cta: 1 initialized @(30325,0)
GPGPU-Sim uArch: Shader 0 finished CTA #0 (30369,0), 1 CTAs running
GPGPU-Sim uArch: core:  0, cta: 0 initialized @(30370,0)
GPGPU-Sim PTX: 6900000 instructions simulated : ctaid=(158,0,0) tid=(164,0,0)
GPGPU-Sim uArch: Shader 0 finished CTA #1 (30428,0), 1 CTAs running
GPGPU-Sim uArch: core:  0, cta: 1 initialized @(30429,0)
GPGPU-Sim uArch: Shader 13 finished CTA #0 (30454,0), 1 CTAs running
GPGPU-Sim uArch: core: 13, cta: 0 initialized @(30455,0)
GPGPU-Sim uArch: Shader 11 finished CTA #0 (30479,0), 1 CTAs running
GPGPU-Sim uArch: core: 11, cta: 0 initialized @(30480,0)
GPGPU-Sim uArch: cycles simulated: 30500  inst.: 6728310 (ipc=220.6) sim_rate=41790 (inst/sec) elapsed = 0:0:02:41 / Thu Aug 14 11:05:38 2014
GPGPU-Sim uArch: Shader 3 finished CTA #0 (30562,0), 1 CTAs running
GPGPU-Sim uArch: core:  3, cta: 0 initialized @(30563,0)
GPGPU-Sim uArch: Shader 6 finished CTA #1 (30594,0), 1 CTAs running
GPGPU-Sim uArch: core:  6, cta: 1 initialized @(30595,0)
GPGPU-Sim PTX: 7000000 instructions simulated : ctaid=(155,0,0) tid=(317,0,0)
GPGPU-Sim uArch: Shader 9 finished CTA #1 (30644,0), 1 CTAs running
GPGPU-Sim uArch: core:  9, cta: 1 initialized @(30645,0)
GPGPU-Sim uArch: Shader 9 finished CTA #0 (30661,0), 1 CTAs running
GPGPU-Sim uArch: core:  9, cta: 0 initialized @(30662,0)
GPGPU-Sim PTX: 7100000 instructions simulated : ctaid=(167,0,0) tid=(415,0,0)
GPGPU-Sim uArch: Shader 6 finished CTA #0 (30950,0), 1 CTAs running
GPGPU-Sim uArch: core:  6, cta: 0 initialized @(30951,0)
GPGPU-Sim uArch: cycles simulated: 31000  inst.: 6919206 (ipc=223.2) sim_rate=42190 (inst/sec) elapsed = 0:0:02:44 / Thu Aug 14 11:05:41 2014
GPGPU-Sim PTX: 7200000 instructions simulated : ctaid=(163,0,0) tid=(377,0,0)
GPGPU-Sim uArch: Shader 10 finished CTA #0 (31295,0), 1 CTAs running
GPGPU-Sim uArch: core: 10, cta: 0 initialized @(31296,0)
GPGPU-Sim uArch: cycles simulated: 31500  inst.: 7077169 (ipc=224.7) sim_rate=42378 (inst/sec) elapsed = 0:0:02:47 / Thu Aug 14 11:05:44 2014
GPGPU-Sim PTX: 7300000 instructions simulated : ctaid=(166,0,0) tid=(6,0,0)
GPGPU-Sim PTX: 7400000 instructions simulated : ctaid=(176,0,0) tid=(445,0,0)
GPGPU-Sim uArch: cycles simulated: 32000  inst.: 7193366 (ipc=224.8) sim_rate=42817 (inst/sec) elapsed = 0:0:02:48 / Thu Aug 14 11:05:45 2014
GPGPU-Sim PTX: 7500000 instructions simulated : ctaid=(165,0,0) tid=(395,0,0)
GPGPU-Sim uArch: cycles simulated: 32500  inst.: 7287256 (ipc=224.2) sim_rate=42866 (inst/sec) elapsed = 0:0:02:50 / Thu Aug 14 11:05:47 2014
GPGPU-Sim PTX: 7600000 instructions simulated : ctaid=(179,0,0) tid=(109,0,0)
GPGPU-Sim uArch: cycles simulated: 33000  inst.: 7418355 (ipc=224.8) sim_rate=43129 (inst/sec) elapsed = 0:0:02:52 / Thu Aug 14 11:05:49 2014
GPGPU-Sim PTX: 7700000 instructions simulated : ctaid=(178,0,0) tid=(235,0,0)
GPGPU-Sim uArch: cycles simulated: 33500  inst.: 7499777 (ipc=223.9) sim_rate=43102 (inst/sec) elapsed = 0:0:02:54 / Thu Aug 14 11:05:51 2014
GPGPU-Sim PTX: 7800000 instructions simulated : ctaid=(160,0,0) tid=(57,0,0)
GPGPU-Sim uArch: cycles simulated: 34000  inst.: 7581421 (ipc=223.0) sim_rate=43322 (inst/sec) elapsed = 0:0:02:55 / Thu Aug 14 11:05:52 2014
GPGPU-Sim uArch: cycles simulated: 34500  inst.: 7634741 (ipc=221.3) sim_rate=43134 (inst/sec) elapsed = 0:0:02:57 / Thu Aug 14 11:05:54 2014
GPGPU-Sim PTX: 7900000 instructions simulated : ctaid=(167,0,0) tid=(33,0,0)
GPGPU-Sim uArch: Shader 7 finished CTA #1 (34666,0), 1 CTAs running
GPGPU-Sim uArch: core:  7, cta: 1 initialized @(34667,0)
GPGPU-Sim uArch: Shader 7 finished CTA #0 (34885,0), 1 CTAs running
GPGPU-Sim uArch: core:  7, cta: 0 initialized @(34886,0)
GPGPU-Sim uArch: cycles simulated: 35000  inst.: 7719074 (ipc=220.5) sim_rate=43123 (inst/sec) elapsed = 0:0:02:59 / Thu Aug 14 11:05:56 2014
GPGPU-Sim uArch: Shader 1 finished CTA #1 (35158,0), 1 CTAs running
GPGPU-Sim uArch: core:  1, cta: 1 initialized @(35159,0)
GPGPU-Sim uArch: Shader 12 finished CTA #0 (35168,0), 1 CTAs running
GPGPU-Sim uArch: core: 12, cta: 0 initialized @(35169,0)
GPGPU-Sim uArch: Shader 1 finished CTA #0 (35175,0), 1 CTAs running
GPGPU-Sim uArch: core:  1, cta: 0 initialized @(35176,0)
GPGPU-Sim uArch: Shader 12 finished CTA #1 (35227,0), 1 CTAs running
GPGPU-Sim uArch: core: 12, cta: 1 initialized @(35228,0)
GPGPU-Sim PTX: 8000000 instructions simulated : ctaid=(181,0,0) tid=(74,0,0)
GPGPU-Sim uArch: Shader 14 finished CTA #0 (35488,0), 1 CTAs running
GPGPU-Sim uArch: core: 14, cta: 0 initialized @(35489,0)
GPGPU-Sim uArch: cycles simulated: 35500  inst.: 7816485 (ipc=220.2) sim_rate=43185 (inst/sec) elapsed = 0:0:03:01 / Thu Aug 14 11:05:58 2014
GPGPU-Sim uArch: Shader 11 finished CTA #1 (35509,0), 1 CTAs running
GPGPU-Sim uArch: core: 11, cta: 1 initialized @(35510,0)
GPGPU-Sim uArch: Shader 8 finished CTA #1 (35548,0), 1 CTAs running
GPGPU-Sim uArch: core:  8, cta: 1 initialized @(35549,0)
GPGPU-Sim uArch: Shader 10 finished CTA #1 (35573,0), 1 CTAs running
GPGPU-Sim uArch: core: 10, cta: 1 initialized @(35574,0)
GPGPU-Sim uArch: Shader 0 finished CTA #1 (35576,0), 1 CTAs running
GPGPU-Sim uArch: core:  0, cta: 1 initialized @(35577,0)
GPGPU-Sim uArch: Shader 11 finished CTA #0 (35585,0), 1 CTAs running
GPGPU-Sim uArch: core: 11, cta: 0 initialized @(35586,0)
GPGPU-Sim uArch: Shader 5 finished CTA #0 (35587,0), 1 CTAs running
GPGPU-Sim uArch: core:  5, cta: 0 initialized @(35588,0)
GPGPU-Sim uArch: Shader 8 finished CTA #0 (35590,0), 1 CTAs running
GPGPU-Sim uArch: core:  8, cta: 0 initialized @(35591,0)
GPGPU-Sim uArch: Shader 3 finished CTA #1 (35610,0), 1 CTAs running
GPGPU-Sim uArch: core:  3, cta: 1 initialized @(35611,0)
GPGPU-Sim PTX: 8100000 instructions simulated : ctaid=(192,0,0) tid=(227,0,0)
GPGPU-Sim uArch: Shader 3 finished CTA #0 (35677,0), 1 CTAs running
GPGPU-Sim uArch: core:  3, cta: 0 initialized @(35678,0)
GPGPU-Sim uArch: Shader 14 finished CTA #1 (35698,0), 1 CTAs running
GPGPU-Sim uArch: core: 14, cta: 1 initialized @(35699,0)
GPGPU-Sim uArch: Shader 5 finished CTA #1 (35819,0), 1 CTAs running
GPGPU-Sim uArch: core:  5, cta: 1 initialized @(35820,0)
GPGPU-Sim PTX: 8200000 instructions simulated : ctaid=(188,0,0) tid=(56,0,0)
GPGPU-Sim uArch: cycles simulated: 36000  inst.: 7990765 (ipc=222.0) sim_rate=43428 (inst/sec) elapsed = 0:0:03:04 / Thu Aug 14 11:06:01 2014
GPGPU-Sim uArch: Shader 2 finished CTA #0 (36140,0), 1 CTAs running
GPGPU-Sim uArch: core:  2, cta: 0 initialized @(36141,0)
GPGPU-Sim uArch: Shader 2 finished CTA #1 (36165,0), 1 CTAs running
GPGPU-Sim uArch: core:  2, cta: 1 initialized @(36166,0)
GPGPU-Sim uArch: Shader 0 finished CTA #0 (36167,0), 1 CTAs running
GPGPU-Sim uArch: core:  0, cta: 0 initialized @(36168,0)
GPGPU-Sim PTX: 8300000 instructions simulated : ctaid=(189,0,0) tid=(170,0,0)
GPGPU-Sim uArch: Shader 4 finished CTA #1 (36251,0), 1 CTAs running
GPGPU-Sim uArch: core:  4, cta: 1 initialized @(36252,0)
GPGPU-Sim uArch: Shader 4 finished CTA #0 (36359,0), 1 CTAs running
GPGPU-Sim uArch: core:  4, cta: 0 initialized @(36360,0)
GPGPU-Sim uArch: Shader 9 finished CTA #1 (36387,0), 1 CTAs running
GPGPU-Sim uArch: core:  9, cta: 1 initialized @(36388,0)
GPGPU-Sim uArch: Shader 10 finished CTA #0 (36430,0), 1 CTAs running
GPGPU-Sim uArch: core: 10, cta: 0 initialized @(36431,0)
GPGPU-Sim PTX: 8400000 instructions simulated : ctaid=(181,0,0) tid=(88,0,0)
GPGPU-Sim uArch: cycles simulated: 36500  inst.: 8145097 (ipc=223.2) sim_rate=43790 (inst/sec) elapsed = 0:0:03:06 / Thu Aug 14 11:06:03 2014
GPGPU-Sim uArch: Shader 9 finished CTA #0 (36528,0), 1 CTAs running
GPGPU-Sim uArch: core:  9, cta: 0 initialized @(36529,0)
GPGPU-Sim uArch: Shader 13 finished CTA #0 (36529,0), 1 CTAs running
GPGPU-Sim uArch: core: 13, cta: 0 initialized @(36530,0)
GPGPU-Sim uArch: Shader 6 finished CTA #1 (36532,0), 1 CTAs running
GPGPU-Sim uArch: core:  6, cta: 1 initialized @(36533,0)
GPGPU-Sim uArch: Shader 13 finished CTA #1 (36588,0), 1 CTAs running
GPGPU-Sim uArch: core: 13, cta: 1 initialized @(36589,0)
GPGPU-Sim PTX: 8500000 instructions simulated : ctaid=(207,0,0) tid=(185,0,0)
GPGPU-Sim uArch: cycles simulated: 37000  inst.: 8332078 (ipc=225.2) sim_rate=44085 (inst/sec) elapsed = 0:0:03:09 / Thu Aug 14 11:06:06 2014
GPGPU-Sim PTX: 8600000 instructions simulated : ctaid=(181,0,0) tid=(220,0,0)
GPGPU-Sim uArch: Shader 6 finished CTA #0 (37280,0), 1 CTAs running
GPGPU-Sim uArch: core:  6, cta: 0 initialized @(37281,0)
GPGPU-Sim PTX: 8700000 instructions simulated : ctaid=(196,0,0) tid=(197,0,0)
GPGPU-Sim uArch: cycles simulated: 37500  inst.: 8459950 (ipc=225.6) sim_rate=44526 (inst/sec) elapsed = 0:0:03:10 / Thu Aug 14 11:06:07 2014
GPGPU-Sim PTX: 8800000 instructions simulated : ctaid=(180,0,0) tid=(325,0,0)
GPGPU-Sim uArch: cycles simulated: 38000  inst.: 8575966 (ipc=225.7) sim_rate=44666 (inst/sec) elapsed = 0:0:03:12 / Thu Aug 14 11:06:09 2014
GPGPU-Sim PTX: 8900000 instructions simulated : ctaid=(197,0,0) tid=(382,0,0)
GPGPU-Sim uArch: cycles simulated: 38500  inst.: 8692255 (ipc=225.8) sim_rate=44805 (inst/sec) elapsed = 0:0:03:14 / Thu Aug 14 11:06:11 2014
GPGPU-Sim PTX: 9000000 instructions simulated : ctaid=(199,0,0) tid=(106,0,0)
GPGPU-Sim uArch: cycles simulated: 39000  inst.: 8784753 (ipc=225.3) sim_rate=45050 (inst/sec) elapsed = 0:0:03:15 / Thu Aug 14 11:06:12 2014
GPGPU-Sim PTX: 9100000 instructions simulated : ctaid=(201,0,0) tid=(210,0,0)
GPGPU-Sim uArch: cycles simulated: 39500  inst.: 8875013 (ipc=224.7) sim_rate=45280 (inst/sec) elapsed = 0:0:03:16 / Thu Aug 14 11:06:13 2014
GPGPU-Sim PTX: 9200000 instructions simulated : ctaid=(193,0,0) tid=(136,0,0)
GPGPU-Sim uArch: cycles simulated: 40000  inst.: 8945424 (ipc=223.6) sim_rate=45178 (inst/sec) elapsed = 0:0:03:18 / Thu Aug 14 11:06:15 2014
GPGPU-Sim uArch: Shader 12 finished CTA #1 (40091,0), 1 CTAs running
GPGPU-Sim uArch: core: 12, cta: 1 initialized @(40092,0)
GPGPU-Sim uArch: Shader 7 finished CTA #1 (40379,0), 1 CTAs running
GPGPU-Sim uArch: core:  7, cta: 1 initialized @(40380,0)
GPGPU-Sim uArch: Shader 7 finished CTA #0 (40396,0), 1 CTAs running
GPGPU-Sim uArch: core:  7, cta: 0 initialized @(40397,0)
GPGPU-Sim PTX: 9300000 instructions simulated : ctaid=(209,0,0) tid=(183,0,0)
GPGPU-Sim uArch: cycles simulated: 40500  inst.: 9023160 (ipc=222.8) sim_rate=45115 (inst/sec) elapsed = 0:0:03:20 / Thu Aug 14 11:06:17 2014
GPGPU-Sim uArch: Shader 12 finished CTA #0 (40707,0), 1 CTAs running
GPGPU-Sim uArch: core: 12, cta: 0 initialized @(40708,0)
GPGPU-Sim uArch: Shader 1 finished CTA #0 (40839,0), 1 CTAs running
GPGPU-Sim uArch: core:  1, cta: 0 initialized @(40840,0)
GPGPU-Sim uArch: Shader 11 finished CTA #1 (40983,0), 1 CTAs running
GPGPU-Sim uArch: core: 11, cta: 1 initialized @(40984,0)
GPGPU-Sim PTX: 9400000 instructions simulated : ctaid=(212,0,0) tid=(421,0,0)
GPGPU-Sim uArch: cycles simulated: 41000  inst.: 9113806 (ipc=222.3) sim_rate=45117 (inst/sec) elapsed = 0:0:03:22 / Thu Aug 14 11:06:19 2014
GPGPU-Sim uArch: Shader 5 finished CTA #0 (41109,0), 1 CTAs running
GPGPU-Sim uArch: core:  5, cta: 0 initialized @(41110,0)
GPGPU-Sim uArch: Shader 3 finished CTA #0 (41119,0), 1 CTAs running
GPGPU-Sim uArch: core:  3, cta: 0 initialized @(41120,0)
GPGPU-Sim uArch: Shader 8 finished CTA #0 (41121,0), 1 CTAs running
GPGPU-Sim uArch: core:  8, cta: 0 initialized @(41122,0)
GPGPU-Sim uArch: Shader 5 finished CTA #1 (41126,0), 1 CTAs running
GPGPU-Sim uArch: core:  5, cta: 1 initialized @(41127,0)
GPGPU-Sim uArch: Shader 3 finished CTA #1 (41145,0), 1 CTAs running
GPGPU-Sim uArch: core:  3, cta: 1 initialized @(41146,0)
GPGPU-Sim uArch: Shader 11 finished CTA #0 (41215,0), 1 CTAs running
GPGPU-Sim uArch: core: 11, cta: 0 initialized @(41216,0)
GPGPU-Sim uArch: Shader 1 finished CTA #1 (41233,0), 1 CTAs running
GPGPU-Sim uArch: core:  1, cta: 1 initialized @(41234,0)
GPGPU-Sim uArch: Shader 8 finished CTA #1 (41236,0), 1 CTAs running
GPGPU-Sim uArch: core:  8, cta: 1 initialized @(41237,0)
GPGPU-Sim uArch: Shader 0 finished CTA #1 (41318,0), 1 CTAs running
GPGPU-Sim uArch: core:  0, cta: 1 initialized @(41319,0)
GPGPU-Sim uArch: Shader 14 finished CTA #1 (41324,0), 1 CTAs running
GPGPU-Sim uArch: core: 14, cta: 1 initialized @(41325,0)
GPGPU-Sim uArch: Shader 4 finished CTA #1 (41332,0), 1 CTAs running
GPGPU-Sim uArch: core:  4, cta: 1 initialized @(41333,0)
GPGPU-Sim PTX: 9500000 instructions simulated : ctaid=(218,0,0) tid=(116,0,0)
GPGPU-Sim uArch: Shader 14 finished CTA #0 (41400,0), 1 CTAs running
GPGPU-Sim uArch: core: 14, cta: 0 initialized @(41401,0)
GPGPU-Sim uArch: Shader 4 finished CTA #0 (41424,0), 1 CTAs running
GPGPU-Sim uArch: core:  4, cta: 0 initialized @(41425,0)
GPGPU-Sim uArch: Shader 10 finished CTA #1 (41445,0), 1 CTAs running
GPGPU-Sim uArch: core: 10, cta: 1 initialized @(41446,0)
GPGPU-Sim uArch: cycles simulated: 41500  inst.: 9285050 (ipc=223.7) sim_rate=45292 (inst/sec) elapsed = 0:0:03:25 / Thu Aug 14 11:06:22 2014
GPGPU-Sim uArch: Shader 0 finished CTA #0 (41547,0), 1 CTAs running
GPGPU-Sim PTX: 9600000 instructions simulated : ctaid=(221,0,0) tid=(282,0,0)
GPGPU-Sim uArch: core:  0, cta: 0 initialized @(41548,0)
GPGPU-Sim uArch: Shader 2 finished CTA #0 (41566,0), 1 CTAs running
GPGPU-Sim uArch: core:  2, cta: 0 initialized @(41567,0)
GPGPU-Sim uArch: Shader 2 finished CTA #1 (41658,0), 1 CTAs running
GPGPU-Sim uArch: core:  2, cta: 1 initialized @(41659,0)
GPGPU-Sim uArch: Shader 9 finished CTA #1 (41784,0), 1 CTAs running
GPGPU-Sim uArch: core:  9, cta: 1 initialized @(41785,0)
GPGPU-Sim PTX: 9700000 instructions simulated : ctaid=(233,0,0) tid=(242,0,0)
GPGPU-Sim uArch: Shader 9 finished CTA #0 (41906,0), 1 CTAs running
GPGPU-Sim uArch: core:  9, cta: 0 initialized @(41907,0)
GPGPU-Sim uArch: Shader 13 finished CTA #0 (41964,0), 1 CTAs running
GPGPU-Sim uArch: core: 13, cta: 0 initialized @(41965,0)
GPGPU-Sim uArch: cycles simulated: 42000  inst.: 9456496 (ipc=225.2) sim_rate=45463 (inst/sec) elapsed = 0:0:03:28 / Thu Aug 14 11:06:25 2014
GPGPU-Sim PTX: 9800000 instructions simulated : ctaid=(230,0,0) tid=(356,0,0)
GPGPU-Sim PTX: 9900000 instructions simulated : ctaid=(214,0,0) tid=(49,0,0)
GPGPU-Sim uArch: cycles simulated: 42500  inst.: 9614475 (ipc=226.2) sim_rate=45783 (inst/sec) elapsed = 0:0:03:30 / Thu Aug 14 11:06:27 2014
GPGPU-Sim uArch: Shader 13 finished CTA #1 (42582,0), 1 CTAs running
GPGPU-Sim uArch: core: 13, cta: 1 initialized @(42583,0)
GPGPU-Sim uArch: Shader 6 finished CTA #1 (42644,0), 1 CTAs running
GPGPU-Sim uArch: core:  6, cta: 1 initialized @(42645,0)
GPGPU-Sim uArch: Shader 6 finished CTA #0 (42661,0), 1 CTAs running
GPGPU-Sim uArch: core:  6, cta: 0 initialized @(42662,0)
GPGPU-Sim uArch: Shader 10 finished CTA #0 (42729,0), 1 CTAs running
GPGPU-Sim uArch: core: 10, cta: 0 initialized @(42730,0)
GPGPU-Sim PTX: 10000000 instructions simulated : ctaid=(234,0,0) tid=(429,0,0)
GPGPU-Sim uArch: cycles simulated: 43000  inst.: 9755281 (ipc=226.9) sim_rate=46015 (inst/sec) elapsed = 0:0:03:32 / Thu Aug 14 11:06:29 2014
GPGPU-Sim PTX: 10100000 instructions simulated : ctaid=(236,0,0) tid=(477,0,0)
GPGPU-Sim uArch: cycles simulated: 43500  inst.: 9872194 (ipc=226.9) sim_rate=46348 (inst/sec) elapsed = 0:0:03:33 / Thu Aug 14 11:06:30 2014
GPGPU-Sim PTX: 10200000 instructions simulated : ctaid=(237,0,0) tid=(222,0,0)
GPGPU-Sim uArch: cycles simulated: 44000  inst.: 9970628 (ipc=226.6) sim_rate=46375 (inst/sec) elapsed = 0:0:03:35 / Thu Aug 14 11:06:32 2014
GPGPU-Sim PTX: 10300000 instructions simulated : ctaid=(237,0,0) tid=(447,0,0)
GPGPU-Sim uArch: cycles simulated: 44500  inst.: 10082298 (ipc=226.6) sim_rate=46462 (inst/sec) elapsed = 0:0:03:37 / Thu Aug 14 11:06:34 2014
GPGPU-Sim PTX: 10400000 instructions simulated : ctaid=(239,0,0) tid=(434,0,0)
GPGPU-Sim uArch: cycles simulated: 45000  inst.: 10144170 (ipc=225.4) sim_rate=46532 (inst/sec) elapsed = 0:0:03:38 / Thu Aug 14 11:06:35 2014
GPGPU-Sim PTX: 10500000 instructions simulated : ctaid=(233,0,0) tid=(338,0,0)
GPGPU-Sim uArch: Shader 12 finished CTA #0 (45434,0), 1 CTAs running
GPGPU-Sim uArch: core: 12, cta: 0 initialized @(45435,0)
GPGPU-Sim uArch: Shader 12 finished CTA #1 (45451,0), 1 CTAs running
GPGPU-Sim uArch: core: 12, cta: 1 initialized @(45452,0)
GPGPU-Sim uArch: cycles simulated: 45500  inst.: 10242563 (ipc=225.1) sim_rate=46557 (inst/sec) elapsed = 0:0:03:40 / Thu Aug 14 11:06:37 2014
GPGPU-Sim PTX: 10600000 instructions simulated : ctaid=(241,0,0) tid=(15,0,0)
GPGPU-Sim uArch: cycles simulated: 46000  inst.: 10312444 (ipc=224.2) sim_rate=46662 (inst/sec) elapsed = 0:0:03:41 / Thu Aug 14 11:06:38 2014
GPGPU-Sim uArch: Shader 7 finished CTA #1 (46186,0), 1 CTAs running
GPGPU-Sim uArch: core:  7, cta: 1 initialized @(46187,0)
GPGPU-Sim uArch: Shader 7 finished CTA #0 (46203,0), 1 CTAs running
GPGPU-Sim uArch: core:  7, cta: 0 initialized @(46204,0)
GPGPU-Sim uArch: Shader 8 finished CTA #1 (46275,0), 1 CTAs running
GPGPU-Sim uArch: core:  8, cta: 1 initialized @(46276,0)
GPGPU-Sim uArch: Shader 3 finished CTA #0 (46319,0), 1 CTAs running
GPGPU-Sim uArch: core:  3, cta: 0 initialized @(46320,0)
GPGPU-Sim uArch: Shader 11 finished CTA #1 (46357,0), 1 CTAs running
GPGPU-Sim uArch: core: 11, cta: 1 initialized @(46358,0)
GPGPU-Sim uArch: Shader 1 finished CTA #1 (46360,0), 1 CTAs running
GPGPU-Sim uArch: core:  1, cta: 1 initialized @(46361,0)
GPGPU-Sim uArch: Shader 3 finished CTA #1 (46395,0), 1 CTAs running
GPGPU-Sim uArch: core:  3, cta: 1 initialized @(46396,0)
GPGPU-Sim PTX: 10700000 instructions simulated : ctaid=(242,0,0) tid=(398,0,0)
GPGPU-Sim uArch: Shader 1 finished CTA #0 (46419,0), 1 CTAs running
GPGPU-Sim uArch: core:  1, cta: 0 initialized @(46420,0)
GPGPU-Sim uArch: Shader 11 finished CTA #0 (46423,0), 1 CTAs running
GPGPU-Sim uArch: core: 11, cta: 0 initialized @(46424,0)
GPGPU-Sim uArch: Shader 5 finished CTA #0 (46440,0), 1 CTAs running
GPGPU-Sim uArch: core:  5, cta: 0 initialized @(46441,0)
GPGPU-Sim uArch: Shader 5 finished CTA #1 (46457,0), 1 CTAs running
GPGPU-Sim uArch: core:  5, cta: 1 initialized @(46458,0)
GPGPU-Sim uArch: cycles simulated: 46500  inst.: 10419946 (ipc=224.1) sim_rate=46517 (inst/sec) elapsed = 0:0:03:44 / Thu Aug 14 11:06:41 2014
GPGPU-Sim uArch: Shader 8 finished CTA #0 (46502,0), 1 CTAs running
GPGPU-Sim uArch: core:  8, cta: 0 initialized @(46503,0)
GPGPU-Sim PTX: 10800000 instructions simulated : ctaid=(251,0,0) tid=(215,0,0)
GPGPU-Sim uArch: cycles simulated: 47000  inst.: 10555683 (ipc=224.6) sim_rate=46706 (inst/sec) elapsed = 0:0:03:46 / Thu Aug 14 11:06:43 2014
GPGPU-Sim PTX: 10900000 instructions simulated : ctaid=(249,0,0) tid=(60,0,0)
GPGPU-Sim uArch: Shader 0 finished CTA #1 (47117,0), 1 CTAs running
GPGPU-Sim uArch: core:  0, cta: 1 initialized @(47118,0)
GPGPU-Sim uArch: Shader 10 finished CTA #1 (47147,0), 1 CTAs running
GPGPU-Sim uArch: core: 10, cta: 1 initialized @(47148,0)
GPGPU-Sim uArch: Shader 0 finished CTA #0 (47176,0), 1 CTAs running
GPGPU-Sim uArch: core:  0, cta: 0 initialized @(47177,0)
GPGPU-Sim uArch: Shader 10 finished CTA #0 (47184,0), 1 CTAs running
GPGPU-Sim uArch: core: 10, cta: 0 initialized @(47185,0)
GPGPU-Sim uArch: Shader 2 finished CTA #0 (47266,0), 1 CTAs running
GPGPU-Sim uArch: core:  2, cta: 0 initialized @(47267,0)
GPGPU-Sim PTX: 11000000 instructions simulated : ctaid=(249,0,0) tid=(324,0,0)
GPGPU-Sim uArch: Shader 14 finished CTA #0 (47441,0), 1 CTAs running
GPGPU-Sim uArch: core: 14, cta: 0 initialized @(47442,0)
GPGPU-Sim uArch: Shader 2 finished CTA #1 (47454,0), 1 CTAs running
GPGPU-Sim uArch: core:  2, cta: 1 initialized @(47455,0)
GPGPU-Sim uArch: Shader 4 finished CTA #1 (47462,0), 1 CTAs running
GPGPU-Sim uArch: core:  4, cta: 1 initialized @(47463,0)
GPGPU-Sim uArch: cycles simulated: 47500  inst.: 10701548 (ipc=225.3) sim_rate=46731 (inst/sec) elapsed = 0:0:03:49 / Thu Aug 14 11:06:46 2014
GPGPU-Sim uArch: Shader 13 finished CTA #0 (47582,0), 1 CTAs running
GPGPU-Sim uArch: core: 13, cta: 0 initialized @(47583,0)
GPGPU-Sim uArch: Shader 14 finished CTA #1 (47586,0), 1 CTAs running
GPGPU-Sim uArch: core: 14, cta: 1 initialized @(47587,0)
GPGPU-Sim uArch: Shader 9 finished CTA #1 (47588,0), 1 CTAs running
GPGPU-Sim uArch: core:  9, cta: 1 initialized @(47589,0)
GPGPU-Sim uArch: Shader 4 finished CTA #0 (47593,0), 1 CTAs running
GPGPU-Sim uArch: core:  4, cta: 0 initialized @(47594,0)
GPGPU-Sim uArch: Shader 9 finished CTA #0 (47605,0), 1 CTAs running
GPGPU-Sim uArch: core:  9, cta: 0 initialized @(47606,0)
GPGPU-Sim uArch: Shader 13 finished CTA #1 (47648,0), 1 CTAs running
GPGPU-Sim uArch: core: 13, cta: 1 initialized @(47649,0)
GPGPU-Sim PTX: 11100000 instructions simulated : ctaid=(247,0,0) tid=(37,0,0)
GPGPU-Sim uArch: Shader 6 finished CTA #0 (47920,0), 1 CTAs running
GPGPU-Sim uArch: core:  6, cta: 0 initialized @(47921,0)
GPGPU-Sim PTX: 11200000 instructions simulated : ctaid=(263,0,0) tid=(248,0,0)
GPGPU-Sim uArch: cycles simulated: 48000  inst.: 10882862 (ipc=226.7) sim_rate=46908 (inst/sec) elapsed = 0:0:03:52 / Thu Aug 14 11:06:49 2014
GPGPU-Sim uArch: Shader 6 finished CTA #1 (48211,0), 1 CTAs running
GPGPU-Sim uArch: core:  6, cta: 1 initialized @(48212,0)
GPGPU-Sim PTX: 11300000 instructions simulated : ctaid=(253,0,0) tid=(69,0,0)
[...]
dq_lat_table:0 	0 	0 	0 	0 	0 	0 	0 	0 	0 	0 	0 	0 	0 	0 	0 	0 	0 	0 	0 	0 	0 	0 	0 	0 	0 	0 	0 	0 	0 	0 	0 	
mf_lat_table:0 	0 	0 	0 	0 	0 	0 	565940 	490612 	1020 	0 	0 	0 	0 	0 	0 	0 	0 	0 	0 	0 	0 	0 	0 	0 	0 	0 	0 	0 	0 	0 	0 	
icnt2mem_lat_table:0 	0 	0 	789768 	245418 	21705 	608 	268 	0 	0 	0 	0 	0 	0 	0 	0 	0 	0 	0 	0 	0 	0 	0 	0 	
icnt2sh_lat_table:0 	0 	0 	150152 	257619 	331669 	200958 	7174 	0 	0 	0 	120 	180 	455 	885 	1748 	3527 	7118 	14104 	28063 	50827 	2973 	0 	0 	
mf_lat_pw_table:0 	0 	0 	0 	0 	0 	0 	2880 	1437 	0 	0 	0 	0 	0 	0 	0 	0 	0 	0 	0 	0 	0 	0 	0 	0 	0 	0 	0 	0 	0 	0 	0 	
maximum concurrent accesses to same row:
dram[0]:         6         5         5         5        12        10        20        14         8         8         6         7        10        10         6         5 
dram[1]:         5         5         5         6        11        12        21        21         9        10         6         7         9         7         5         6 
dram[2]:         5         5         5         6        11        11        16        19         8         8         5         5        10         8         5         6 
dram[3]:         6         6         5         5        14        11        21        17         7         9         6         7        10         8         5         6 
dram[4]:         5         6         5         5         8        10        15        21         6         9         6         6        10         7         5         5 
dram[5]:         6         7         6         6        10        13        17        19         7         5         6         5         7        10         8         5 
maximum service time to same row:
dram[0]:      8253      9052      7390      5907     12741      8232      7341      7715      8280      6702      8738     14352      9465      9466      8801      8164 
dram[1]:      7775      8551      7421      6535      8350      9854      7685      7056      8295      7838      8748     12959      9581      9451      9628      6915 
dram[2]:      9820      7393      5935      8670      8339      8747      7273      9193      7093      8054      7300     11509      9084      6530      8972      9644 
dram[3]:      6966     11181      6986      8701      8210      8241      6713      6499      6520      7736      7181     12527      9279      7684     13897      9598 
dram[4]:      7819      7694      7092      9677      8917      8239      7772      7679      6860      7778     10309     12325      9297      9035      6835      9578 
dram[5]:      9959      8626      9728      9786      8527     10056     11274      9594      8013      5800      7892     12599      9700      8036      8972      6594 
average row accesses per activate:
dram[0]:  1.854627  1.855107  1.834520  1.854520  1.797591  1.821860  1.760066  1.794283  1.838255  1.792899  1.796424  1.792271  1.897545  1.857011  1.859181  1.860874 
dram[1]:  1.825576  1.814027  1.865947  1.796972  1.831084  1.811045  1.790480  1.771539  1.839833  1.825528  1.777174  1.794635  1.840632  1.851592  1.835042  1.823911 
dram[2]:  1.836932  1.837145  1.861664  1.860166  1.828132  1.830431  1.757257  1.794580  1.819955  1.833863  1.814627  1.820072  1.839786  1.849767  1.831910  1.819635 
dram[3]:  1.854801  1.850068  1.851670  1.861253  1.815301  1.830250  1.758550  1.772937  1.846225  1.842697  1.802982  1.791482  1.846085  1.847896  1.861035  1.851989 
dram[4]:  1.832086  1.844828  1.870953  1.845978  1.810786  1.830154  1.777211  1.786311  1.838215  1.843146  1.836207  1.803196  1.847846  1.853715  1.834089  1.841839 
dram[5]:  1.847466  1.851436  1.872401  1.822602  1.840941  1.829417  1.777683  1.784653  1.841188  1.827402  1.788537  1.794533  1.863616  1.840632  1.830927  1.857010 
average row locality = 387611/212166 = 1.826923
number of total memory accesses made:
dram[0]:         0         0         0         0         0         0         0         0         0         0         0         0         0         0         0         0 
dram[1]:         0         0         0         0         0         0         0         0         0         0         0         0         0         0         0         0 
dram[2]:         0         0         0         0         0         0         0         0         0         0         0         0         0         0         0         0 
dram[3]:         0         0         0         0         0         0         0         0         0         0         0         0         0         0         0         0 
dram[4]:         0         0         0         0         0         0         0         0         0         0         0         0         0         0         0         0 
dram[5]:         0         0         0         0         0         0         0         0         0         0         0         0         0         0         0         0 
total accesses: 0
min_bank_accesses = 0!
min_chip_accesses = 0!
number of total read accesses:
dram[0]:      4026      3813      4124      4041      3877      3911      4180      4083      3911      3811      3847      4012      3896      3903      3972      3850 
dram[1]:      3951      3916      4148      4036      3931      3962      4153      4073      3828      3832      3852      4013      3960      3827      4041      3873 
dram[2]:      3913      3919      4118      4044      3921      3988      4117      4046      3878      3903      3872      3960      4017      3850      4006      3917 
dram[3]:      3861      3985      4157      4011      4004      3951      4208      4172      3855      3971      3923      3969      4028      3873      4016      3933 
dram[4]:      3824      3979      4045      4039      3956      3927      4120      4220      3816      3970      3978      3882      3995      3889      3968      3940 
dram[5]:      3797      4043      3962      4048      3906      3887      4098      4264      3772      3966      4050      3871      3943      3951      3855      3936 
total reads: 380936
bank skew: 4264/3772 = 1.13
chip skew: 63917/63257 = 1.01
number of total write accesses:
dram[0]:        82        92         0         0         4         6        60        60       135       128        71        69       123       136        68        69 
dram[1]:        89        93         0         0         4         6        60        60       135       144        72        68       117       128        75        63 
dram[2]:        86        97         0         0         4         6        60        60       135       137        73        66       117       127        70        68 
dram[3]:        99        87         0         0         6         6        60        60       131       129        67        69       122       124        82        71 
dram[4]:        93        87         0         0         6         6        60        60       138       131        69        67       122       128        78        66 
dram[5]:       103        82         0         0         6         6        60        62       135       142        69        68       129       126        76        64 
total reads: 6675
min_bank_accesses = 0!
chip skew: 1128/1103 = 1.02
average mf latency per bank:
dram[0]:        395       397       350       351      1298      1102      1308      1320       506       504       523       523       481       479       449       458
dram[1]:        394       399       351       357      1144      1342      1309      1513       508       516       525       534       477       494       447       470
dram[2]:        395       399       350       357      1149      1595      1323      1397       507       510       528       538       477       491       451       460
dram[3]:        397       402       352       361      1316      1494      1432      1385       506       509       533       536       477       492       459       463
dram[4]:        390       402       348       358      1064      1505      1293      1366       502       511       518       537       470       487       447       469
dram[5]:        393       398       349       357      1082      1574      1304      1408       504       513       518       541       475       488       451       475
maximum mf latency per bank:
dram[0]:        610       604       665       589       617       557       635       569       619       571       578       645       592       524       685       560
dram[1]:        561       539       552       524       591       550       617       560       588       540       585       565       593       522       572       557
dram[2]:        627       534       576       576       568       609       581       628       591       575       558       565       551       567       599       534
dram[3]:        533       592       607       569       592       647       642       627       595       583       554       522       553       546       589       604
dram[4]:        552       584       587       581       535       645       558       631       510       586       548       553       540       529       545       595
dram[5]:        546       615       614       568       606       623       609       633       567       629       574       583       533       588       591       587

Number of Memory Banks Accessed per Memory Operation per Warp (from 0):
0	0	0	0	0	0	0	0	0	0	0	0	0	0	0	0	0	0	0	0	0	0	0	0	0	0	0	0	0	0	0	0	0	0	0	0	0	0	0	0	0	0	0	0	0	0	0	0	0	0	0	0	0	0	0	0	0	0	0	0	0	0	0	0	0	0	0	0	0	0	0	0	0	0	0	0	0	0	0	0	0	0	0	0	0	0	0	0	0	0	0	0	0	0	0	0	
Average # of Memory Banks Accessed per Memory Operation per Warp=-nan

position of mrq chosen
0	0	0	0	0	0	0	0	0	0	0	0	0	0	0	0	

average position of mrq chosen = -nan
Memory Partition 0: 
Cache L2_bank_000:
MSHR contents

Cache L2_bank_001:
MSHR contents

In Dram Latency Queue (total = 0): 
DRAM[0]: 16 bks, busW=4 BL=8 CL=12, tRRD=2 tCCD=6, tRCD=12 tRAS=28 tRP=12 tRC=40
n_cmd=2851160 n_nop=2652589 n_act=35203 n_pre=35187 n_req=64360 n_rd=126514 n_write=1667 bw_util=0.08991
n_activity=1227596 dram_eff=0.2088
bk0: 8052a 2772414i bk1: 7626a 2776091i bk2: 8248a 2771883i bk3: 8082a 2773584i bk4: 7754a 2775114i bk5: 7822a 2775020i bk6: 8360a 2765827i bk7: 8166a 2768628i bk8: 7822a 2771858i bk9: 7622a 2772973i bk10: 7694a 2773441i bk11: 8024a 2770126i bk12: 7792a 2774241i bk13: 7806a 2773034i bk14: 7944a 2772843i bk15: 7700a 2775560i 
dram_util_bins: 0 0 0 0 0 0 0 0 0 0
dram_eff_bins: 0 0 0 0 0 0 0 0 0 0
mrqq: max=14 avg=0.187808
Memory Partition 1: 
Cache L2_bank_002:
MSHR contents

Cache L2_bank_003:
MSHR contents

In Dram Latency Queue (total = 0): 
DRAM[1]: 16 bks, busW=4 BL=8 CL=12, tRRD=2 tCCD=6, tRCD=12 tRAS=28 tRP=12 tRC=40
n_cmd=2851160 n_nop=2651738 n_act=35484 n_pre=35468 n_req=64510 n_rd=126792 n_write=1678 bw_util=0.09012
n_activity=1236286 dram_eff=0.2078
bk0: 7902a 2772640i bk1: 7832a 2772517i bk2: 8296a 2772086i bk3: 8072a 2772073i bk4: 7862a 2774950i bk5: 7924a 2773857i bk6: 8306a 2767687i bk7: 8146a 2767925i bk8: 7656a 2773479i bk9: 7664a 2773078i bk10: 7704a 2773007i bk11: 8026a 2770297i bk12: 7920a 2771578i bk13: 7654a 2774052i bk14: 8082a 2770885i bk15: 7746a 2773909i 
dram_util_bins: 0 0 0 0 0 0 0 0 0 0
dram_eff_bins: 0 0 0 0 0 0 0 0 0 0
mrqq: max=12 avg=0.186938
Memory Partition 2: 
Cache L2_bank_004:
MSHR contents

Cache L2_bank_005:
MSHR contents

In Dram Latency Queue (total = 0): 
DRAM[2]: 16 bks, busW=4 BL=8 CL=12, tRRD=2 tCCD=6, tRCD=12 tRAS=28 tRP=12 tRC=40
n_cmd=2851160 n_nop=2651871 n_act=35349 n_pre=35333 n_req=64575 n_rd=126938 n_write=1669 bw_util=0.09021
n_activity=1233993 dram_eff=0.2084
bk0: 7826a 2773460i bk1: 7838a 2773326i bk2: 8236a 2772602i bk3: 8088a 2773739i bk4: 7842a 2775068i bk5: 7976a 2773898i bk6: 8234a 2767112i bk7: 8092a 2768593i bk8: 7756a 2772405i bk9: 7806a 2772489i bk10: 7744a 2773663i bk11: 7920a 2772139i bk12: 8034a 2770182i bk13: 7700a 2773808i bk14: 8012a 2771538i bk15: 7834a 2773156i 
dram_util_bins: 0 0 0 0 0 0 0 0 0 0
dram_eff_bins: 0 0 0 0 0 0 0 0 0 0
mrqq: max=13 avg=0.187417
Memory Partition 3: 
Cache L2_bank_006:
MSHR contents

Cache L2_bank_007:
MSHR contents

In Dram Latency Queue (total = 0): 
DRAM[3]: 16 bks, busW=4 BL=8 CL=12, tRRD=2 tCCD=6, tRCD=12 tRAS=28 tRP=12 tRC=40
n_cmd=2851160 n_nop=2650569 n_act=35547 n_pre=35531 n_req=65030 n_rd=127834 n_write=1679 bw_util=0.09085
n_activity=1236567 dram_eff=0.2095
bk0: 7722a 2775394i bk1: 7970a 2773024i bk2: 8314a 2771500i bk3: 8022a 2774023i bk4: 8008a 2773322i bk5: 7902a 2774545i bk6: 8416a 2765525i bk7: 8344a 2765666i bk8: 7710a 2773432i bk9: 7942a 2771071i bk10: 7846a 2772146i bk11: 7938a 2770888i bk12: 8056a 2770531i bk13: 7746a 2772963i bk14: 8032a 2771798i bk15: 7866a 2773214i 
dram_util_bins: 0 0 0 0 0 0 0 0 0 0
dram_eff_bins: 0 0 0 0 0 0 0 0 0 0
mrqq: max=13 avg=0.189946
Memory Partition 4: 
Cache L2_bank_008:
MSHR contents

Cache L2_bank_009:
MSHR contents

In Dram Latency Queue (total = 0): 
DRAM[4]: 16 bks, busW=4 BL=8 CL=12, tRRD=2 tCCD=6, tRCD=12 tRAS=28 tRP=12 tRC=40
n_cmd=2851160 n_nop=2651758 n_act=35323 n_pre=35307 n_req=64659 n_rd=127096 n_write=1676 bw_util=0.09033
n_activity=1232174 dram_eff=0.209
bk0: 7648a 2775304i bk1: 7958a 2772685i bk2: 8090a 2774315i bk3: 8078a 2773559i bk4: 7912a 2773747i bk5: 7854a 2774877i bk6: 8240a 2767492i bk7: 8440a 2765417i bk8: 7632a 2774269i bk9: 7940a 2770963i bk10: 7956a 2772243i bk11: 7764a 2773082i bk12: 7990a 2770478i bk13: 7778a 2772920i bk14: 7936a 2772279i bk15: 7880a 2773334i 
dram_util_bins: 0 0 0 0 0 0 0 0 0 0
dram_eff_bins: 0 0 0 0 0 0 0 0 0 0
mrqq: max=11 avg=0.188956
Memory Partition 5: 
Cache L2_bank_010:
MSHR contents

Cache L2_bank_011:
MSHR contents

In Dram Latency Queue (total = 0): 
DRAM[5]: 16 bks, busW=4 BL=8 CL=12, tRRD=2 tCCD=6, tRCD=12 tRAS=28 tRP=12 tRC=40
n_cmd=2851160 n_nop=2652263 n_act=35261 n_pre=35245 n_req=64477 n_rd=126698 n_write=1693 bw_util=0.09006
n_activity=1231296 dram_eff=0.2085
bk0: 7594a 2776025i bk1: 8086a 2772352i bk2: 7924a 2775995i bk3: 8096a 2773084i bk4: 7812a 2775824i bk5: 7774a 2776226i bk6: 8196a 2768098i bk7: 8528a 2764405i bk8: 7544a 2775201i bk9: 7932a 2770573i bk10: 8100a 2769155i bk11: 7742a 2772970i bk12: 7886a 2772409i bk13: 7902a 2771450i bk14: 7710a 2774262i bk15: 7872a 2773793i 
dram_util_bins: 0 0 0 0 0 0 0 0 0 0
dram_eff_bins: 0 0 0 0 0 0 0 0 0 0
mrqq: max=13 avg=0.1873

========= L2 cache stats =========
L2_cache_bank[0]: Access = 87562, Miss = 31833, Miss_rate = 0.364, Pending_hits = 418, Reservation_fails = 1458
L2_cache_bank[1]: Access = 82618, Miss = 31424, Miss_rate = 0.380, Pending_hits = 421, Reservation_fails = 850
L2_cache_bank[2]: Access = 83846, Miss = 31864, Miss_rate = 0.380, Pending_hits = 378, Reservation_fails = 1227
L2_cache_bank[3]: Access = 91656, Miss = 31532, Miss_rate = 0.344, Pending_hits = 435, Reservation_fails = 838
L2_cache_bank[4]: Access = 83756, Miss = 31842, Miss_rate = 0.380, Pending_hits = 390, Reservation_fails = 1095
L2_cache_bank[5]: Access = 93835, Miss = 31627, Miss_rate = 0.337, Pending_hits = 420, Reservation_fails = 1012
L2_cache_bank[6]: Access = 91865, Miss = 32052, Miss_rate = 0.349, Pending_hits = 430, Reservation_fails = 1205
L2_cache_bank[7]: Access = 90946, Miss = 31865, Miss_rate = 0.350, Pending_hits = 418, Reservation_fails = 986
L2_cache_bank[8]: Access = 83423, Miss = 31702, Miss_rate = 0.380, Pending_hits = 385, Reservation_fails = 1357
L2_cache_bank[9]: Access = 90877, Miss = 31846, Miss_rate = 0.350, Pending_hits = 388, Reservation_fails = 537
L2_cache_bank[10]: Access = 82753, Miss = 31383, Miss_rate = 0.379, Pending_hits = 425, Reservation_fails = 1828
L2_cache_bank[11]: Access = 94630, Miss = 31966, Miss_rate = 0.338, Pending_hits = 397, Reservation_fails = 1236
L2_total_cache_accesses = 1057767
L2_total_cache_misses = 380936
L2_total_cache_miss_rate = 0.3601
L2_total_cache_pending_hits = 4905
L2_total_cache_reservation_fails = 13629
L2_total_cache_breakdown:
	L2_cache_stats_breakdown[GLOBAL_ACC_R][HIT] = 565043
	L2_cache_stats_breakdown[GLOBAL_ACC_R][HIT_RESERVED] = 3016
	L2_cache_stats_breakdown[GLOBAL_ACC_R][MISS] = 379483
	L2_cache_stats_breakdown[GLOBAL_ACC_R][RESERVATION_FAIL] = 3670
	L2_cache_stats_breakdown[CONST_ACC_R][HIT] = 26
	L2_cache_stats_breakdown[CONST_ACC_R][HIT_RESERVED] = 3
	L2_cache_stats_breakdown[CONST_ACC_R][MISS] = 1
	L2_cache_stats_breakdown[CONST_ACC_R][RESERVATION_FAIL] = 100
	L2_cache_stats_breakdown[GLOBAL_ACC_W][HIT] = 106712
	L2_cache_stats_breakdown[GLOBAL_ACC_W][HIT_RESERVED] = 1849
	L2_cache_stats_breakdown[GLOBAL_ACC_W][MISS] = 1439
	L2_cache_stats_breakdown[GLOBAL_ACC_W][RESERVATION_FAIL] = 8933
	L2_cache_stats_breakdown[INST_ACC_R][HIT] = 145
	L2_cache_stats_breakdown[INST_ACC_R][HIT_RESERVED] = 37
	L2_cache_stats_breakdown[INST_ACC_R][MISS] = 13
	L2_cache_stats_breakdown[INST_ACC_R][RESERVATION_FAIL] = 926
L2_cache_data_port_util = 0.092
L2_cache_fill_port_util = 0.059

icnt_total_pkts_mem_to_simt=4848775
icnt_total_pkts_simt_to_mem=1167767
LD_mem_lat_dist  0 0 0 0 0 0 0 0 0 0 0 0 0 0 0 0 0 0 0 0 0 0 0 0 0 0 0
ST_mem_lat_dist  0 0 0 0 0 0 0 0 0 0 0 0 0 0 0 0 0 0 0 0 0 0 0 0 0 0 0
----------------------------Interconnect-DETAILS--------------------------------
Class 0:
Packet latency average = 24.6337
	minimum = 6
	maximum = 200
Network latency average = 19.8475
	minimum = 6
	maximum = 160
Slowest packet = 1048691
Flit latency average = 21.2256
	minimum = 6
	maximum = 156
Slowest flit = 5348230
Fragmentation average = 6.16466e-05
	minimum = 0
	maximum = 66
Injected packet rate average = 0.03818
	minimum = 0.0336271 (at node 10)
	maximum = 0.0475135 (at node 15)
Accepted packet rate average = 0.03818
	minimum = 0.0336271 (at node 10)
	maximum = 0.0475135 (at node 15)
Injected flit rate average = 0.109191
	minimum = 0.036819 (at node 10)
	maximum = 0.221546 (at node 15)
Accepted flit rate average= 0.109191
	minimum = 0.0406233 (at node 25)
	maximum = 0.161704 (at node 9)
Injected packet length average = 2.85989
Accepted packet length average = 2.85989
Total in-flight flits = 0 (0 measured)
====== Overall Traffic Statistics ======
====== Traffic class 0 ======
Packet latency average = 25.0226 (2 samples)
	minimum = 6 (2 samples)
	maximum = 188 (2 samples)
Network latency average = 20.2079 (2 samples)
	minimum = 6 (2 samples)
	maximum = 153.5 (2 samples)
Flit latency average = 21.6406 (2 samples)
	minimum = 6 (2 samples)
	maximum = 149.5 (2 samples)
Fragmentation average = 3.08233e-05 (2 samples)
	minimum = 0 (2 samples)
	maximum = 33 (2 samples)
Injected packet rate average = 0.0363454 (2 samples)
	minimum = 0.0321149 (2 samples)
	maximum = 0.0449837 (2 samples)
Accepted packet rate average = 0.0363454 (2 samples)
	minimum = 0.0321149 (2 samples)
	maximum = 0.0449837 (2 samples)
Injected flit rate average = 0.103388 (2 samples)
	minimum = 0.0355033 (2 samples)
	maximum = 0.208005 (2 samples)
Accepted flit rate average = 0.103388 (2 samples)
	minimum = 0.0393654 (2 samples)
	maximum = 0.153629 (2 samples)
Injected packet size average = 2.8446 (2 samples)
Accepted packet size average = 2.8446 (2 samples)
Hops average = 1 (2 samples)
----------------------------END-of-Interconnect-DETAILS-------------------------


gpgpu_simulation_time = 0 days, 1 hrs, 49 min, 48 sec (6588 sec)
gpgpu_simulation_rate = 82317 (inst/sec)
gpgpu_simulation_rate = 327 (cycle/sec)
GPGPU-Sim: synchronize waiting for inactive GPU simulation
GPGPU-Sim API: Stream Manager State
GPGPU-Sim: detected inactive GPU simulation thread
Time spent in different stages of GPU_CUDA KERNEL:
 0.000027000000 s,  0.000001206834 % : GPU: SET DEVICE / DRIVER INIT
 0.000002000000 s,  0.000000089395 % : GPU MEM: ALO
 1.379680037498 s,  0.061668328941 % : GPU MEM: COPY IN
2235.877441406250 s, 99.938255310059 % : GPU: KERNEL
 0.001752999960 s,  0.000078354817 % : GPU MEM: COPY OUT
 0.000000000000 s,  0.000000000000 % : GPU MEM: FRE
Total time:
2237.258789062500 s
> > > > > > > > > > 
