

        *** GPGPU-Sim Simulator Version 3.2.2  [build 17315] ***


GPGPU-Sim PTX: simulation mode 0 (can change with PTX_SIM_MODE_FUNC environment variable:
               1=functional simulation only, 0=detailed performance simulator)
GPGPU-Sim: Configuration options:

-network_mode                           1 # Interconnection network mode
-inter_config_file   config_fermi_islip.icnt # Interconnection network config file
-gpgpu_ptx_use_cuobjdump                    1 # Use cuobjdump to extract ptx and sass from binaries
-gpgpu_experimental_lib_support                    0 # Try to extract code from cuda libraries [Broken because of unknown cudaGetExportTable]
-gpgpu_ptx_convert_to_ptxplus                    0 # Convert SASS (native ISA) to ptxplus and run ptxplus
-gpgpu_ptx_force_max_capability                   20 # Force maximum compute capability
-gpgpu_ptx_inst_debug_to_file                    0 # Dump executed instructions' debug information to file
-gpgpu_ptx_inst_debug_file       inst_debug.txt # Executed instructions' debug output file
-gpgpu_ptx_inst_debug_thread_uid                    1 # Thread UID for executed instructions' debug output
-gpgpu_simd_model                       1 # 1 = post-dominator
-gpgpu_shader_core_pipeline              1536:32 # shader core pipeline config, i.e., {<nthread>:<warpsize>}
-gpgpu_tex_cache:l1  4:128:24,L:R:m:N,F:128:4,128:2 # per-shader L1 texture cache  (READ-ONLY) config  {<nsets>:<bsize>:<assoc>,<rep>:<wr>:<alloc>:<wr_alloc>,<mshr>:<N>:<merge>,<mq>:<rf>}
-gpgpu_const_cache:l1 64:64:2,L:R:f:N,A:2:32,4 # per-shader L1 constant memory cache  (READ-ONLY) config  {<nsets>:<bsize>:<assoc>,<rep>:<wr>:<alloc>:<wr_alloc>,<mshr>:<N>:<merge>,<mq>} 
-gpgpu_cache:il1     4:128:4,L:R:f:N,A:2:32,4 # shader L1 instruction cache config  {<nsets>:<bsize>:<assoc>,<rep>:<wr>:<alloc>:<wr_alloc>,<mshr>:<N>:<merge>,<mq>} 
-gpgpu_cache:dl1     32:128:4,L:L:m:N,A:32:8,8 # per-shader L1 data cache config  {<nsets>:<bsize>:<assoc>,<rep>:<wr>:<alloc>:<wr_alloc>,<mshr>:<N>:<merge>,<mq> | none}
-gpgpu_cache:dl1PrefL1                 none # per-shader L1 data cache config  {<nsets>:<bsize>:<assoc>,<rep>:<wr>:<alloc>:<wr_alloc>,<mshr>:<N>:<merge>,<mq> | none}
-gpgpu_cache:dl1PreShared                 none # per-shader L1 data cache config  {<nsets>:<bsize>:<assoc>,<rep>:<wr>:<alloc>:<wr_alloc>,<mshr>:<N>:<merge>,<mq> | none}
-gmem_skip_L1D                          0 # global memory access skip L1D cache (implements -Xptxas -dlcm=cg, default=no skip)
-gpgpu_perfect_mem                      0 # enable perfect memory mode (no cache miss)
-n_regfile_gating_group                    4 # group of lanes that should be read/written together)
-gpgpu_clock_gated_reg_file                    0 # enable clock gated reg file for power calculations
-gpgpu_clock_gated_lanes                    0 # enable clock gated lanes for power calculations
-gpgpu_shader_registers                32768 # Number of registers per shader core. Limits number of concurrent CTAs. (default 8192)
-gpgpu_shader_cta                       8 # Maximum number of concurrent CTAs in shader (default 8)
-gpgpu_n_clusters                      15 # number of processing clusters
-gpgpu_n_cores_per_cluster                    1 # number of simd cores per cluster
-gpgpu_n_cluster_ejection_buffer_size                    8 # number of packets in ejection buffer
-gpgpu_n_ldst_response_buffer_size                    2 # number of response packets in ld/st unit ejection buffer
-gpgpu_shmem_size                   16384 # Size of shared memory per shader core (default 16kB)
-gpgpu_shmem_size                   49152 # Size of shared memory per shader core (default 16kB)
-gpgpu_shmem_size_PrefL1                16384 # Size of shared memory per shader core (default 16kB)
-gpgpu_shmem_size_PrefShared                16384 # Size of shared memory per shader core (default 16kB)
-gpgpu_shmem_num_banks                   32 # Number of banks in the shared memory in each shader core (default 16)
-gpgpu_shmem_limited_broadcast                    0 # Limit shared memory to do one broadcast per cycle (default on)
-gpgpu_shmem_warp_parts                    1 # Number of portions a warp is divided into for shared memory bank conflict check 
-gpgpu_warpdistro_shader                   -1 # Specify which shader core to collect the warp size distribution from
-gpgpu_warp_issue_shader                    0 # Specify which shader core to collect the warp issue distribution from
-gpgpu_local_mem_map                    1 # Mapping from local memory space address to simulated GPU physical address space (default = enabled)
-gpgpu_num_reg_banks                   16 # Number of register banks (default = 8)
-gpgpu_reg_bank_use_warp_id                    0 # Use warp ID in mapping registers to banks (default = off)
-gpgpu_operand_collector_num_units_sp                    6 # number of collector units (default = 4)
-gpgpu_operand_collector_num_units_sfu                    8 # number of collector units (default = 4)
-gpgpu_operand_collector_num_units_mem                    2 # number of collector units (default = 2)
-gpgpu_operand_collector_num_units_gen                    0 # number of collector units (default = 0)
-gpgpu_operand_collector_num_in_ports_sp                    2 # number of collector unit in ports (default = 1)
-gpgpu_operand_collector_num_in_ports_sfu                    1 # number of collector unit in ports (default = 1)
-gpgpu_operand_collector_num_in_ports_mem                    1 # number of collector unit in ports (default = 1)
-gpgpu_operand_collector_num_in_ports_gen                    0 # number of collector unit in ports (default = 0)
-gpgpu_operand_collector_num_out_ports_sp                    2 # number of collector unit in ports (default = 1)
-gpgpu_operand_collector_num_out_ports_sfu                    1 # number of collector unit in ports (default = 1)
-gpgpu_operand_collector_num_out_ports_mem                    1 # number of collector unit in ports (default = 1)
-gpgpu_operand_collector_num_out_ports_gen                    0 # number of collector unit in ports (default = 0)
-gpgpu_coalesce_arch                   13 # Coalescing arch (default = 13, anything else is off for now)
-gpgpu_num_sched_per_core                    2 # Number of warp schedulers per core
-gpgpu_max_insn_issue_per_warp                    1 # Max number of instructions that can be issued per warp in one cycle by scheduler
-gpgpu_simt_core_sim_order                    1 # Select the simulation order of cores in a cluster (0=Fix, 1=Round-Robin)
-gpgpu_pipeline_widths        2,1,1,2,1,1,2 # Pipeline widths ID_OC_SP,ID_OC_SFU,ID_OC_MEM,OC_EX_SP,OC_EX_SFU,OC_EX_MEM,EX_WB
-gpgpu_num_sp_units                     2 # Number of SP units (default=1)
-gpgpu_num_sfu_units                    1 # Number of SF units (default=1)
-gpgpu_num_mem_units                    1 # Number if ldst units (default=1) WARNING: not hooked up to anything
-gpgpu_scheduler                      lrr # Scheduler configuration: < lrr | gto | two_level_active > If two_level_active:<num_active_warps>:<inner_prioritization>:<outer_prioritization>For complete list of prioritization values see shader.h enum scheduler_prioritization_typeDefault: gto
-gpgpu_dram_scheduler                    1 # 0 = fifo, 1 = FR-FCFS (defaul)
-gpgpu_dram_partition_queues              8:8:8:8 # i2$:$2d:d2$:$2i
-l2_ideal                               0 # Use a ideal L2 cache that always hit
-gpgpu_cache:dl2     64:128:8,L:B:m:W,A:32:4,4:0,32 # unified banked L2 data cache config  {<nsets>:<bsize>:<assoc>,<rep>:<wr>:<alloc>:<wr_alloc>,<mshr>:<N>:<merge>,<mq>}
-gpgpu_cache:dl2_texture_only                    0 # L2 cache used for texture only
-gpgpu_n_mem                            6 # number of memory modules (e.g. memory controllers) in gpu
-gpgpu_n_sub_partition_per_mchannel                    2 # number of memory subpartition in each memory module
-gpgpu_n_mem_per_ctrlr                    2 # number of memory chips per memory controller
-gpgpu_memlatency_stat                   14 # track and display latency statistics 0x2 enables MC, 0x4 enables queue logs
-gpgpu_frfcfs_dram_sched_queue_size                   16 # 0 = unlimited (default); # entries per chip
-gpgpu_dram_return_queue_size                  116 # 0 = unlimited (default); # entries per chip
-gpgpu_dram_buswidth                    4 # default = 4 bytes (8 bytes per cycle at DDR)
-gpgpu_dram_burst_length                    8 # Burst length of each DRAM request (default = 4 data bus cycle)
-dram_data_command_freq_ratio                    4 # Frequency ratio between DRAM data bus and command bus (default = 2 times, i.e. DDR)
-gpgpu_dram_timing_opt nbk=16:CCD=2:RRD=6:RCD=12:RAS=28:RP=12:RC=40: CL=12:WL=4:CDLR=5:WR=12:nbkgrp=4:CCDL=3:RTPL=2 # DRAM timing parameters = {nbk:tCCD:tRRD:tRCD:tRAS:tRP:tRC:CL:WL:tCDLR:tWR:nbkgrp:tCCDL:tRTPL}
-rop_latency                          120 # ROP queue latency (default 85)
-dram_latency                         100 # DRAM latency (default 30)
-gpgpu_mem_addr_mapping dramid@8;00000000.00000000.00000000.00000000.0000RRRR.RRRRRRRR.BBBCCCCB.CCSSSSSS # mapping memory address to dram model {dramid@<start bit>;<memory address map>}
-gpgpu_mem_addr_test                    0 # run sweep test to check address mapping for aliased address
-gpgpu_mem_address_mask                    1 # 0 = old addressing mask, 1 = new addressing mask, 2 = new add. mask + flipped bank sel and chip sel bits
-gpuwattch_xml_file  gpuwattch_gtx480.xml # GPUWattch XML file
-power_simulation_enabled                    1 # Turn on power simulator (1=On, 0=Off)
-power_per_cycle_dump                    0 # Dump detailed power output each cycle
-power_trace_enabled                    0 # produce a file for the power trace (1=On, 0=Off)
-power_trace_zlevel                     6 # Compression level of the power trace output log (0=no comp, 9=highest)
-steady_power_levels_enabled                    0 # produce a file for the steady power levels (1=On, 0=Off)
-steady_state_definition                  8:4 # allowed deviation:number of samples
-gpgpu_max_cycle                        0 # terminates gpu simulation early (0 = no limit)
-gpgpu_max_insn                         0 # terminates gpu simulation early (0 = no limit)
-gpgpu_max_cta                          0 # terminates gpu simulation early (0 = no limit)
-gpgpu_runtime_stat                   500 # display runtime statistics such as dram utilization {<freq>:<flag>}
-liveness_message_freq                    1 # Minimum number of seconds between simulation liveness messages (0 = always print)
-gpgpu_flush_l1_cache                    0 # Flush L1 cache at the end of each kernel call
-gpgpu_flush_l2_cache                    0 # Flush L2 cache at the end of each kernel call
-gpgpu_deadlock_detect                    1 # Stop the simulation at deadlock (1=on (default), 0=off)
-gpgpu_ptx_instruction_classification                    0 # if enabled will classify ptx instruction types per kernel (Max 255 kernels now)
-gpgpu_ptx_sim_mode                     0 # Select between Performance (default) or Functional simulation (1)
-gpgpu_clock_domains 700.0:700.0:700.0:924.0 # Clock Domain Frequencies in MhZ {<Core Clock>:<ICNT Clock>:<L2 Clock>:<DRAM Clock>}
-gpgpu_max_concurrent_kernel                    8 # maximum kernels that can run concurrently on GPU
-gpgpu_cflog_interval                    0 # Interval between each snapshot in control flow logger
-visualizer_enabled                     0 # Turn on visualizer output (1=On, 0=Off)
-visualizer_outputfile                 NULL # Specifies the output log file for visualizer
-visualizer_zlevel                      6 # Compression level of the visualizer output log (0=no comp, 9=highest)
-trace_enabled                          0 # Turn on traces
-trace_components                    none # comma seperated list of traces to enable. Complete list found in trace_streams.tup. Default none
-trace_sampling_core                    0 # The core which is printed using CORE_DPRINTF. Default 0
-trace_sampling_memory_partition                   -1 # The memory partition which is printed using MEMPART_DPRINTF. Default -1 (i.e. all)
-enable_ptx_file_line_stats                    1 # Turn on PTX source line statistic profiling. (1 = On)
-ptx_line_stats_filename gpgpu_inst_stats.txt # Output file for PTX source line statistics.
-save_embedded_ptx                      0 # saves ptx files embedded in binary as <n>.ptx
-keep                                   0 # keep intermediate files created by GPGPU-Sim when interfacing with external programs
-gpgpu_ptx_save_converted_ptxplus                    0 # Saved converted ptxplus to a file
-ptx_opcode_latency_int         4,13,4,5,145 # Opcode latencies for integers <ADD,MAX,MUL,MAD,DIV>Default 1,1,19,25,145
-ptx_opcode_latency_fp          4,13,4,5,39 # Opcode latencies for single precision floating points <ADD,MAX,MUL,MAD,DIV>Default 1,1,1,1,30
-ptx_opcode_latency_dp         8,19,8,8,330 # Opcode latencies for double precision floating points <ADD,MAX,MUL,MAD,DIV>Default 8,8,8,8,335
-ptx_opcode_initiation_int            1,2,2,1,8 # Opcode initiation intervals for integers <ADD,MAX,MUL,MAD,DIV>Default 1,1,4,4,32
-ptx_opcode_initiation_fp            1,2,1,1,4 # Opcode initiation intervals for single precision floating points <ADD,MAX,MUL,MAD,DIV>Default 1,1,1,1,5
-ptx_opcode_initiation_dp         8,16,8,8,130 # Opcode initiation intervals for double precision floating points <ADD,MAX,MUL,MAD,DIV>Default 8,8,8,8,130
DRAM Timing Options:
nbk                                    16 # number of banks
CCD                                     2 # column to column delay
RRD                                     6 # minimal delay between activation of rows in different banks
RCD                                    12 # row to column delay
RAS                                    28 # time needed to activate row
RP                                     12 # time needed to precharge (deactivate) row
RC                                     40 # row cycle time
CDLR                                    5 # switching from write to read (changes tWTR)
WR                                     12 # last data-in to row precharge
CL                                     12 # CAS latency
WL                                      4 # Write latency
nbkgrp                                  4 # number of bank groups
CCDL                                    3 # column to column delay between accesses to different bank groups
RTPL                                    2 # read to precharge delay between accesses to different bank groups
Total number of memory sub partition = 12
addr_dec_mask[CHIP]  = 0000000000000000 	high:64 low:0
addr_dec_mask[BK]    = 000000000000e100 	high:16 low:8
addr_dec_mask[ROW]   = 000000000fff0000 	high:28 low:16
addr_dec_mask[COL]   = 0000000000001eff 	high:13 low:0
addr_dec_mask[BURST] = 000000000000003f 	high:6 low:0
sub_partition_id_mask = 0000000000000100
GPGPU-Sim uArch: clock freqs: 700000000.000000:700000000.000000:700000000.000000:924000000.000000
GPGPU-Sim uArch: clock periods: 0.00000000142857142857:0.00000000142857142857:0.00000000142857142857:0.00000000108225108225
*** Initializing Memory Statistics ***
GPGPU-Sim uArch: interconnect node map (shaderID+MemID to icntID)
GPGPU-Sim uArch: Memory nodes ID start from index: 15
GPGPU-Sim uArch:    0   1   2   3   4
GPGPU-Sim uArch:    5   6   7   8   9
GPGPU-Sim uArch:   10  11  12  13  14
GPGPU-Sim uArch:   15  16  17  18  19
GPGPU-Sim uArch:   20  21  22  23  24
GPGPU-Sim uArch:   25  26
GPGPU-Sim uArch: interconnect node reverse map (icntID to shaderID+MemID)
GPGPU-Sim uArch: Memory nodes start from ID: 15
GPGPU-Sim uArch:    0   1   2   3   4
GPGPU-Sim uArch:    5   6   7   8   9
GPGPU-Sim uArch:   10  11  12  13  14
GPGPU-Sim uArch:   15  16  17  18  19
GPGPU-Sim uArch:   20  21  22  23  24
GPGPU-Sim uArch:   25  26
5dfc00447550946b86c573f0833154d9  /home/xlxie/workdir_Aug1st_2014/bm/rodinia_2.4_sim_1.0/cuda/b+tree.tmp.0/b+tree.out
GPGPU-Sim uArch: performance model initialization complete.
GPGPU-Sim PTX: __cudaRegisterFatBinary, fat_cubin_handle = 1, filename=./kernel/kernel_gpu_cuda_wrapper.cu
self exe links to: /home/xlxie/workdir_Aug1st_2014/bm/rodinia_2.4_sim_1.0/cuda/b+tree.tmp.0/b+tree.out
Running md5sum using "md5sum /home/xlxie/workdir_Aug1st_2014/bm/rodinia_2.4_sim_1.0/cuda/b+tree.tmp.0/b+tree.out "
Running cuobjdump using "$CUDA_INSTALL_PATH/bin/cuobjdump -ptx -elf -sass /home/xlxie/workdir_Aug1st_2014/bm/rodinia_2.4_sim_1.0/cuda/b+tree.tmp.0/b+tree.out > _cuobjdump_complete_output_MEHljQ"
Parsing file _cuobjdump_complete_output_MEHljQ
######### cuobjdump parser ########
## Adding new section PTX
Adding ptx filename: _cuobjdump_1.ptx
Adding arch: sm_20
Adding identifier: ./kernel/kernel_gpu_cuda_wrapper.cu
## Adding new section PTX
Adding ptx filename: _cuobjdump_2.ptx
Adding arch: sm_20
Adding identifier: ./kernel/kernel_gpu_cuda_wrapper_2.cu
## Adding new section PTX
Adding ptx filename: _cuobjdump_3.ptx
Adding arch: sm_20
Adding identifier: ./util/cuda/cuda.cu
Done parsing!!!
GPGPU-Sim PTX: __cudaRegisterFunction findK : hostFun 0x0x405e20, fat_cubin_handle = 1
GPGPU-Sim PTX: instruction assembly for function 'findK'...   done.
GPGPU-Sim PTX: finding reconvergence points for 'findK'...
GPGPU-Sim PTX: Finding dominators for 'findK'...
GPGPU-Sim PTX: Finding immediate dominators for 'findK'...
GPGPU-Sim PTX: Finding postdominators for 'findK'...
GPGPU-Sim PTX: Finding immediate postdominators for 'findK'...
GPGPU-Sim PTX: pre-decoding instructions for 'findK'...
GPGPU-Sim PTX: reconvergence points for findK...
GPGPU-Sim PTX:  1 (potential) branch divergence @  PC=0x038 (_1.ptx:74) @%p1 bra $Lt_0_7682;
GPGPU-Sim PTX:    immediate post dominator      @  PC=0x1e8 (_1.ptx:141) ld.global.u64 %rd32, [%rd12+0];
GPGPU-Sim PTX:  2 (potential) branch divergence @  PC=0x0d0 (_1.ptx:96) @%p3 bra $Lt_0_7938;
GPGPU-Sim PTX:    immediate post dominator      @  PC=0x150 (_1.ptx:116) bar.sync 0;
GPGPU-Sim PTX:  3 (potential) branch divergence @  PC=0x0e8 (_1.ptx:99) @%p4 bra $Lt_0_7938;
GPGPU-Sim PTX:    immediate post dominator      @  PC=0x150 (_1.ptx:116) bar.sync 0;
GPGPU-Sim PTX:  4 (potential) branch divergence @  PC=0x140 (_1.ptx:110) @%p5 bra $Lt_0_7938;
GPGPU-Sim PTX:    immediate post dominator      @  PC=0x150 (_1.ptx:116) bar.sync 0;
GPGPU-Sim PTX:  5 (potential) branch divergence @  PC=0x158 (_1.ptx:117) @!%p2 bra $Lt_0_6402;
GPGPU-Sim PTX:    immediate post dominator      @  PC=0x180 (_1.ptx:125) bar.sync 0;
GPGPU-Sim PTX:  6 (potential) branch divergence @  PC=0x198 (_1.ptx:129) @%p6 bra $Lt_0_5634;
GPGPU-Sim PTX:    immediate post dominator      @  PC=0x1a0 (_1.ptx:130) bra.uni $Lt_0_5122;
GPGPU-Sim PTX:  7 (potential) branch divergence @  PC=0x1a0 (_1.ptx:130) bra.uni $Lt_0_5122;
GPGPU-Sim PTX:    immediate post dominator      @  PC=0x1e8 (_1.ptx:141) ld.global.u64 %rd32, [%rd12+0];
GPGPU-Sim PTX:  8 (potential) branch divergence @  PC=0x220 (_1.ptx:148) @%p7 bra $Lt_0_7170;
GPGPU-Sim PTX:    immediate post dominator      @  PC=0x270 (_1.ptx:161) exit;
GPGPU-Sim PTX: ... end of reconvergence points for findK
GPGPU-Sim PTX: ... done pre-decoding instructions for 'findK'.
GPGPU-Sim PTX: finished parsing EMBEDDED .ptx file _1.ptx
Adding _cuobjdump_1.ptx with cubin handle 1
GPGPU-Sim PTX: extracting embedded .ptx to temporary file "_ptx_lvP16e"
Running: cat _ptx_lvP16e | sed 's/.version 1.5/.version 1.4/' | sed 's/, texmode_independent//' | sed 's/\(\.extern \.const\[1\] .b8 \w\+\)\[\]/\1\[1\]/' | sed 's/const\[.\]/const\[0\]/g' > _ptx2_6OTIUD
GPGPU-Sim PTX: generating ptxinfo using "$CUDA_INSTALL_PATH/bin/ptxas --gpu-name=sm_20 -v _ptx2_6OTIUD --output-file  /dev/null 2> _ptx_lvP16einfo"
GPGPU-Sim PTX: Kernel 'findK' : regs=18, lmem=0, smem=0, cmem=96
GPGPU-Sim PTX: removing ptxinfo using "rm -f _ptx_lvP16e _ptx2_6OTIUD _ptx_lvP16einfo"
GPGPU-Sim PTX: loading globals with explicit initializers... 
GPGPU-Sim PTX: finished loading globals (0 bytes total).
GPGPU-Sim PTX: loading constants with explicit initializers...  done.
GPGPU-Sim PTX: __cudaRegisterFatBinary, fat_cubin_handle = 2, filename=./kernel/kernel_gpu_cuda_wrapper_2.cu
GPGPU-Sim PTX: __cudaRegisterFunction findRangeK : hostFun 0x0x406530, fat_cubin_handle = 2
GPGPU-Sim PTX: instruction assembly for function 'findRangeK'...   done.
GPGPU-Sim PTX: finding reconvergence points for 'findRangeK'...
GPGPU-Sim PTX: Finding dominators for 'findRangeK'...
GPGPU-Sim PTX: Finding immediate dominators for 'findRangeK'...
GPGPU-Sim PTX: Finding postdominators for 'findRangeK'...
GPGPU-Sim PTX: Finding immediate postdominators for 'findRangeK'...
GPGPU-Sim PTX: pre-decoding instructions for 'findRangeK'...
GPGPU-Sim PTX: reconvergence points for findRangeK...
GPGPU-Sim PTX:  1 (potential) branch divergence @  PC=0x2c0 (_2.ptx:79) @%p1 bra $Lt_0_11778;
GPGPU-Sim PTX:    immediate post dominator      @  PC=0x528 (_2.ptx:174) ld.global.u64 %rd43, [%rd15+0];
GPGPU-Sim PTX:  2 (potential) branch divergence @  PC=0x368 (_2.ptx:103) @%p3 bra $Lt_0_12034;
GPGPU-Sim PTX:    immediate post dominator      @  PC=0x3c8 (_2.ptx:119) ld.global.s32 %r8, [%rd14+0];
GPGPU-Sim PTX:  3 (potential) branch divergence @  PC=0x380 (_2.ptx:106) @%p4 bra $Lt_0_12034;
GPGPU-Sim PTX:    immediate post dominator      @  PC=0x3c8 (_2.ptx:119) ld.global.s32 %r8, [%rd14+0];
GPGPU-Sim PTX:  4 (potential) branch divergence @  PC=0x3a8 (_2.ptx:111) @%p5 bra $Lt_0_12034;
GPGPU-Sim PTX:    immediate post dominator      @  PC=0x3c8 (_2.ptx:119) ld.global.s32 %r8, [%rd14+0];
GPGPU-Sim PTX:  5 (potential) branch divergence @  PC=0x400 (_2.ptx:126) @%p6 bra $Lt_0_12546;
GPGPU-Sim PTX:    immediate post dominator      @  PC=0x460 (_2.ptx:142) bar.sync 0;
GPGPU-Sim PTX:  6 (potential) branch divergence @  PC=0x418 (_2.ptx:129) @%p7 bra $Lt_0_12546;
GPGPU-Sim PTX:    immediate post dominator      @  PC=0x460 (_2.ptx:142) bar.sync 0;
GPGPU-Sim PTX:  7 (potential) branch divergence @  PC=0x440 (_2.ptx:134) @%p8 bra $Lt_0_12546;
GPGPU-Sim PTX:    immediate post dominator      @  PC=0x460 (_2.ptx:142) bar.sync 0;
GPGPU-Sim PTX:  8 (potential) branch divergence @  PC=0x468 (_2.ptx:143) @!%p2 bra $Lt_0_9986;
GPGPU-Sim PTX:    immediate post dominator      @  PC=0x4b0 (_2.ptx:156) bar.sync 0;
GPGPU-Sim PTX:  9 (potential) branch divergence @  PC=0x4c8 (_2.ptx:160) @%p9 bra $Lt_0_8706;
GPGPU-Sim PTX:    immediate post dominator      @  PC=0x4d0 (_2.ptx:161) bra.uni $Lt_0_8194;
GPGPU-Sim PTX: 10 (potential) branch divergence @  PC=0x4d0 (_2.ptx:161) bra.uni $Lt_0_8194;
GPGPU-Sim PTX:    immediate post dominator      @  PC=0x528 (_2.ptx:174) ld.global.u64 %rd43, [%rd15+0];
GPGPU-Sim PTX: 11 (potential) branch divergence @  PC=0x560 (_2.ptx:181) @%p10 bra $Lt_0_10754;
GPGPU-Sim PTX:    immediate post dominator      @  PC=0x588 (_2.ptx:189) bar.sync 0;
GPGPU-Sim PTX: 12 (potential) branch divergence @  PC=0x5c8 (_2.ptx:197) @%p11 bra $Lt_0_11266;
GPGPU-Sim PTX:    immediate post dominator      @  PC=0x618 (_2.ptx:210) exit;
GPGPU-Sim PTX: ... end of reconvergence points for findRangeK
GPGPU-Sim PTX: ... done pre-decoding instructions for 'findRangeK'.
GPGPU-Sim PTX: finished parsing EMBEDDED .ptx file _2.ptx
Adding _cuobjdump_2.ptx with cubin handle 2
GPGPU-Sim PTX: extracting embedded .ptx to temporary file "_ptx_t3yNo3"
Running: cat _ptx_t3yNo3 | sed 's/.version 1.5/.version 1.4/' | sed 's/, texmode_independent//' | sed 's/\(\.extern \.const\[1\] .b8 \w\+\)\[\]/\1\[1\]/' | sed 's/const\[.\]/const\[0\]/g' > _ptx2_U4QTSs
GPGPU-Sim PTX: generating ptxinfo using "$CUDA_INSTALL_PATH/bin/ptxas --gpu-name=sm_20 -v _ptx2_U4QTSs --output-file  /dev/null 2> _ptx_t3yNo3info"
GPGPU-Sim PTX: Kernel 'findRangeK' : regs=23, lmem=0, smem=0, cmem=120
GPGPU-Sim PTX: removing ptxinfo using "rm -f _ptx_t3yNo3 _ptx2_U4QTSs _ptx_t3yNo3info"
GPGPU-Sim PTX: loading globals with explicit initializers... 
GPGPU-Sim PTX: finished loading globals (0 bytes total).
GPGPU-Sim PTX: loading constants with explicit initializers...  done.
GPGPU-Sim PTX: __cudaRegisterFatBinary, fat_cubin_handle = 3, filename=./util/cuda/cuda.cu
Selecting device 0
Input File: ../../data/b+tree/mil.txt 
Command File: ../../data/b+tree/command.txt 
Command Buffer: 
j 6000 3000
k 10000


Getting input from file ../../data/b+tree/mil.txt...
Transforming data to a GPU suitable structure...
Tree transformation took 0.793608
Waiting for command
> 
******command: j count=6000, rSize=6000 
knodes_elem=3953, knodes_unit_mem=4084, knodes_mem=16144052
GPGPU-Sim: synchronize waiting for inactive GPU simulation
GPGPU-Sim API: Stream Manager State
GPGPU-Sim: detected inactive GPU simulation thread
# of blocks = 6000, # of threads/block = 508 (ensure that device can handle)

GPGPU-Sim PTX: cudaLaunch for 0x0x406530 (mode=performance simulation) on stream 0
GPGPU-Sim PTX: pushing kernel 'findRangeK' to stream 0, gridDim= (6000,1,1) blockDim = (508,1,1) 
kernel 'findRangeK' transfer to GPU hardware scheduler
GPGPU-Sim uArch: Shader 1 bind to kernel 1 'findRangeK'
GPGPU-Sim uArch: CTA/core = 2, limited by: regs
GPGPU-Sim uArch: core:  1, cta: 0 initialized @(1,0)
GPGPU-Sim uArch: Shader 2 bind to kernel 1 'findRangeK'
GPGPU-Sim uArch: core:  2, cta: 0 initialized @(1,0)
GPGPU-Sim uArch: Shader 3 bind to kernel 1 'findRangeK'
GPGPU-Sim uArch: core:  3, cta: 0 initialized @(1,0)
GPGPU-Sim uArch: Shader 4 bind to kernel 1 'findRangeK'
GPGPU-Sim uArch: core:  4, cta: 0 initialized @(1,0)
GPGPU-Sim uArch: Shader 5 bind to kernel 1 'findRangeK'
GPGPU-Sim uArch: core:  5, cta: 0 initialized @(1,0)
GPGPU-Sim uArch: Shader 6 bind to kernel 1 'findRangeK'
GPGPU-Sim uArch: core:  6, cta: 0 initialized @(1,0)
GPGPU-Sim uArch: Shader 7 bind to kernel 1 'findRangeK'
GPGPU-Sim uArch: core:  7, cta: 0 initialized @(1,0)
GPGPU-Sim uArch: Shader 8 bind to kernel 1 'findRangeK'
GPGPU-Sim uArch: core:  8, cta: 0 initialized @(1,0)
GPGPU-Sim uArch: Shader 9 bind to kernel 1 'findRangeK'
GPGPU-Sim uArch: core:  9, cta: 0 initialized @(1,0)
GPGPU-Sim uArch: Shader 10 bind to kernel 1 'findRangeK'
GPGPU-Sim uArch: core: 10, cta: 0 initialized @(1,0)
GPGPU-Sim uArch: Shader 11 bind to kernel 1 'findRangeK'
GPGPU-Sim uArch: core: 11, cta: 0 initialized @(1,0)
GPGPU-Sim uArch: Shader 12 bind to kernel 1 'findRangeK'
GPGPU-Sim uArch: core: 12, cta: 0 initialized @(1,0)
GPGPU-Sim uArch: Shader 13 bind to kernel 1 'findRangeK'
GPGPU-Sim uArch: core: 13, cta: 0 initialized @(1,0)
GPGPU-Sim uArch: Shader 14 bind to kernel 1 'findRangeK'
GPGPU-Sim uArch: core: 14, cta: 0 initialized @(1,0)
GPGPU-Sim uArch: Shader 0 bind to kernel 1 'findRangeK'
GPGPU-Sim uArch: core:  0, cta: 0 initialized @(1,0)
GPGPU-Sim uArch: core:  1, cta: 1 initialized @(2,0)
GPGPU-Sim uArch: core:  2, cta: 1 initialized @(2,0)
GPGPU-Sim uArch: core:  3, cta: 1 initialized @(2,0)
GPGPU-Sim uArch: core:  4, cta: 1 initialized @(2,0)
GPGPU-Sim uArch: core:  5, cta: 1 initialized @(2,0)
GPGPU-Sim uArch: core:  6, cta: 1 initialized @(2,0)
GPGPU-Sim uArch: core:  7, cta: 1 initialized @(2,0)
GPGPU-Sim uArch: core:  8, cta: 1 initialized @(2,0)
GPGPU-Sim uArch: core:  9, cta: 1 initialized @(2,0)
GPGPU-Sim uArch: core: 10, cta: 1 initialized @(2,0)
GPGPU-Sim uArch: core: 11, cta: 1 initialized @(2,0)
GPGPU-Sim uArch: core: 12, cta: 1 initialized @(2,0)
GPGPU-Sim uArch: core: 13, cta: 1 initialized @(2,0)
GPGPU-Sim uArch: core: 14, cta: 1 initialized @(2,0)
GPGPU-Sim uArch: core:  0, cta: 1 initialized @(2,0)
GPGPU-Sim uArch: cycles simulated: 500  inst.: 0 (ipc= 0.0) sim_rate=0 (inst/sec) elapsed = 0:0:00:25 / Thu Aug 14 11:03:23 2014
GPGPU-Sim PTX: 100000 instructions simulated : ctaid=(19,0,0) tid=(91,0,0)
GPGPU-Sim PTX: 200000 instructions simulated : ctaid=(8,0,0) tid=(7,0,0)
GPGPU-Sim uArch: cycles simulated: 1000  inst.: 255476 (ipc=255.5) sim_rate=9462 (inst/sec) elapsed = 0:0:00:27 / Thu Aug 14 11:03:25 2014
GPGPU-Sim PTX: 300000 instructions simulated : ctaid=(8,0,0) tid=(411,0,0)
GPGPU-Sim uArch: cycles simulated: 1500  inst.: 337880 (ipc=225.3) sim_rate=11651 (inst/sec) elapsed = 0:0:00:29 / Thu Aug 14 11:03:27 2014
GPGPU-Sim PTX: 400000 instructions simulated : ctaid=(22,0,0) tid=(63,0,0)
GPGPU-Sim uArch: cycles simulated: 2000  inst.: 426874 (ipc=213.4) sim_rate=13770 (inst/sec) elapsed = 0:0:00:31 / Thu Aug 14 11:03:29 2014
GPGPU-Sim PTX: 500000 instructions simulated : ctaid=(29,0,0) tid=(352,0,0)
GPGPU-Sim uArch: cycles simulated: 2500  inst.: 529708 (ipc=211.9) sim_rate=16051 (inst/sec) elapsed = 0:0:00:33 / Thu Aug 14 11:03:31 2014
GPGPU-Sim PTX: 600000 instructions simulated : ctaid=(6,0,0) tid=(59,0,0)
GPGPU-Sim uArch: cycles simulated: 3000  inst.: 611006 (ipc=203.7) sim_rate=17970 (inst/sec) elapsed = 0:0:00:34 / Thu Aug 14 11:03:32 2014
GPGPU-Sim PTX: 700000 instructions simulated : ctaid=(26,0,0) tid=(265,0,0)
GPGPU-Sim uArch: cycles simulated: 3500  inst.: 686318 (ipc=196.1) sim_rate=19609 (inst/sec) elapsed = 0:0:00:35 / Thu Aug 14 11:03:33 2014
GPGPU-Sim uArch: cycles simulated: 4000  inst.: 760414 (ipc=190.1) sim_rate=20551 (inst/sec) elapsed = 0:0:00:37 / Thu Aug 14 11:03:35 2014
GPGPU-Sim PTX: 800000 instructions simulated : ctaid=(22,0,0) tid=(263,0,0)
GPGPU-Sim uArch: cycles simulated: 4500  inst.: 854936 (ipc=190.0) sim_rate=21373 (inst/sec) elapsed = 0:0:00:40 / Thu Aug 14 11:03:38 2014
GPGPU-Sim PTX: 900000 instructions simulated : ctaid=(1,0,0) tid=(285,0,0)
GPGPU-Sim uArch: cycles simulated: 5000  inst.: 965418 (ipc=193.1) sim_rate=23546 (inst/sec) elapsed = 0:0:00:41 / Thu Aug 14 11:03:39 2014
GPGPU-Sim PTX: 1000000 instructions simulated : ctaid=(11,0,0) tid=(429,0,0)
GPGPU-Sim uArch: cycles simulated: 5500  inst.: 1018789 (ipc=185.2) sim_rate=24256 (inst/sec) elapsed = 0:0:00:42 / Thu Aug 14 11:03:40 2014
GPGPU-Sim PTX: 1100000 instructions simulated : ctaid=(29,0,0) tid=(319,0,0)
GPGPU-Sim uArch: cycles simulated: 6000  inst.: 1104679 (ipc=184.1) sim_rate=24548 (inst/sec) elapsed = 0:0:00:45 / Thu Aug 14 11:03:43 2014
GPGPU-Sim PTX: 1200000 instructions simulated : ctaid=(11,0,0) tid=(26,0,0)
GPGPU-Sim uArch: cycles simulated: 6500  inst.: 1157200 (ipc=178.0) sim_rate=25156 (inst/sec) elapsed = 0:0:00:46 / Thu Aug 14 11:03:44 2014
GPGPU-Sim uArch: cycles simulated: 7000  inst.: 1234085 (ipc=176.3) sim_rate=25185 (inst/sec) elapsed = 0:0:00:49 / Thu Aug 14 11:03:47 2014
GPGPU-Sim PTX: 1300000 instructions simulated : ctaid=(5,0,0) tid=(299,0,0)
GPGPU-Sim uArch: cycles simulated: 7500  inst.: 1282118 (ipc=170.9) sim_rate=25642 (inst/sec) elapsed = 0:0:00:50 / Thu Aug 14 11:03:48 2014
GPGPU-Sim uArch: Shader 1 finished CTA #0 (7564,0), 1 CTAs running
GPGPU-Sim uArch: core:  1, cta: 0 initialized @(7565,0)
GPGPU-Sim uArch: Shader 8 finished CTA #0 (7627,0), 1 CTAs running
GPGPU-Sim uArch: core:  8, cta: 0 initialized @(7628,0)
GPGPU-Sim uArch: Shader 6 finished CTA #0 (7639,0), 1 CTAs running
GPGPU-Sim uArch: core:  6, cta: 0 initialized @(7640,0)
GPGPU-Sim uArch: Shader 12 finished CTA #0 (7663,0), 1 CTAs running
GPGPU-Sim uArch: core: 12, cta: 0 initialized @(7664,0)
GPGPU-Sim uArch: Shader 10 finished CTA #0 (7675,0), 1 CTAs running
GPGPU-Sim uArch: core: 10, cta: 0 initialized @(7676,0)
GPGPU-Sim uArch: Shader 0 finished CTA #0 (7681,0), 1 CTAs running
GPGPU-Sim uArch: core:  0, cta: 0 initialized @(7682,0)
GPGPU-Sim uArch: Shader 2 finished CTA #1 (7684,0), 1 CTAs running
GPGPU-Sim uArch: core:  2, cta: 1 initialized @(7685,0)
GPGPU-Sim uArch: Shader 3 finished CTA #0 (7698,0), 1 CTAs running
GPGPU-Sim uArch: core:  3, cta: 0 initialized @(7699,0)
GPGPU-Sim uArch: Shader 7 finished CTA #0 (7709,0), 1 CTAs running
GPGPU-Sim uArch: core:  7, cta: 0 initialized @(7710,0)
GPGPU-Sim uArch: Shader 2 finished CTA #0 (7719,0), 1 CTAs running
GPGPU-Sim uArch: core:  2, cta: 0 initialized @(7720,0)
GPGPU-Sim uArch: Shader 12 finished CTA #1 (7720,0), 1 CTAs running
GPGPU-Sim uArch: core: 12, cta: 1 initialized @(7721,0)
GPGPU-Sim uArch: Shader 3 finished CTA #1 (7723,0), 1 CTAs running
GPGPU-Sim uArch: core:  3, cta: 1 initialized @(7724,0)
GPGPU-Sim uArch: Shader 8 finished CTA #1 (7726,0), 1 CTAs running
GPGPU-Sim uArch: core:  8, cta: 1 initialized @(7727,0)
GPGPU-Sim uArch: Shader 9 finished CTA #1 (7729,0), 1 CTAs running
GPGPU-Sim uArch: core:  9, cta: 1 initialized @(7730,0)
GPGPU-Sim uArch: Shader 4 finished CTA #1 (7733,0), 1 CTAs running
GPGPU-Sim uArch: core:  4, cta: 1 initialized @(7734,0)
GPGPU-Sim uArch: Shader 4 finished CTA #0 (7772,0), 1 CTAs running
GPGPU-Sim uArch: core:  4, cta: 0 initialized @(7773,0)
GPGPU-Sim uArch: Shader 6 finished CTA #1 (7783,0), 1 CTAs running
GPGPU-Sim uArch: core:  6, cta: 1 initialized @(7784,0)
GPGPU-Sim uArch: Shader 14 finished CTA #0 (7795,0), 1 CTAs running
GPGPU-Sim uArch: core: 14, cta: 0 initialized @(7796,0)
GPGPU-Sim PTX: 1400000 instructions simulated : ctaid=(41,0,0) tid=(454,0,0)
GPGPU-Sim uArch: Shader 0 finished CTA #1 (7803,0), 1 CTAs running
GPGPU-Sim uArch: core:  0, cta: 1 initialized @(7804,0)
GPGPU-Sim uArch: Shader 10 finished CTA #1 (7813,0), 1 CTAs running
GPGPU-Sim uArch: core: 10, cta: 1 initialized @(7814,0)
GPGPU-Sim uArch: Shader 9 finished CTA #0 (7821,0), 1 CTAs running
GPGPU-Sim uArch: core:  9, cta: 0 initialized @(7822,0)
GPGPU-Sim uArch: Shader 1 finished CTA #1 (7829,0), 1 CTAs running
GPGPU-Sim uArch: core:  1, cta: 1 initialized @(7830,0)
GPGPU-Sim uArch: Shader 7 finished CTA #1 (7854,0), 1 CTAs running
GPGPU-Sim uArch: core:  7, cta: 1 initialized @(7855,0)
GPGPU-Sim uArch: Shader 11 finished CTA #1 (7868,0), 1 CTAs running
GPGPU-Sim uArch: core: 11, cta: 1 initialized @(7869,0)
GPGPU-Sim uArch: Shader 14 finished CTA #1 (7910,0), 1 CTAs running
GPGPU-Sim uArch: core: 14, cta: 1 initialized @(7911,0)
GPGPU-Sim PTX: 1500000 instructions simulated : ctaid=(54,0,0) tid=(379,0,0)
GPGPU-Sim uArch: Shader 13 finished CTA #1 (7949,0), 1 CTAs running
GPGPU-Sim uArch: core: 13, cta: 1 initialized @(7950,0)
GPGPU-Sim uArch: Shader 13 finished CTA #0 (7974,0), 1 CTAs running
GPGPU-Sim uArch: core: 13, cta: 0 initialized @(7975,0)
GPGPU-Sim uArch: cycles simulated: 8000  inst.: 1487910 (ipc=186.0) sim_rate=27553 (inst/sec) elapsed = 0:0:00:54 / Thu Aug 14 11:03:52 2014
GPGPU-Sim uArch: Shader 5 finished CTA #1 (8015,0), 1 CTAs running
GPGPU-Sim uArch: core:  5, cta: 1 initialized @(8016,0)
GPGPU-Sim uArch: Shader 5 finished CTA #0 (8040,0), 1 CTAs running
GPGPU-Sim uArch: core:  5, cta: 0 initialized @(8041,0)
GPGPU-Sim PTX: 1600000 instructions simulated : ctaid=(53,0,0) tid=(229,0,0)
GPGPU-Sim uArch: Shader 11 finished CTA #0 (8107,0), 1 CTAs running
GPGPU-Sim uArch: core: 11, cta: 0 initialized @(8108,0)
GPGPU-Sim PTX: 1700000 instructions simulated : ctaid=(33,0,0) tid=(329,0,0)
GPGPU-Sim uArch: cycles simulated: 8500  inst.: 1722533 (ipc=202.7) sim_rate=30219 (inst/sec) elapsed = 0:0:00:57 / Thu Aug 14 11:03:55 2014
GPGPU-Sim PTX: 1800000 instructions simulated : ctaid=(41,0,0) tid=(90,0,0)
GPGPU-Sim PTX: 1900000 instructions simulated : ctaid=(31,0,0) tid=(282,0,0)
GPGPU-Sim uArch: cycles simulated: 9000  inst.: 1901973 (ipc=211.3) sim_rate=31699 (inst/sec) elapsed = 0:0:01:00 / Thu Aug 14 11:03:58 2014
GPGPU-Sim PTX: 2000000 instructions simulated : ctaid=(43,0,0) tid=(345,0,0)
GPGPU-Sim uArch: cycles simulated: 9500  inst.: 1980714 (ipc=208.5) sim_rate=32470 (inst/sec) elapsed = 0:0:01:01 / Thu Aug 14 11:03:59 2014
GPGPU-Sim PTX: 2100000 instructions simulated : ctaid=(45,0,0) tid=(53,0,0)
GPGPU-Sim uArch: cycles simulated: 10000  inst.: 2085471 (ipc=208.5) sim_rate=32585 (inst/sec) elapsed = 0:0:01:04 / Thu Aug 14 11:04:02 2014
GPGPU-Sim PTX: 2200000 instructions simulated : ctaid=(38,0,0) tid=(466,0,0)
GPGPU-Sim PTX: 2300000 instructions simulated : ctaid=(39,0,0) tid=(327,0,0)
GPGPU-Sim uArch: cycles simulated: 10500  inst.: 2241205 (ipc=213.4) sim_rate=33957 (inst/sec) elapsed = 0:0:01:06 / Thu Aug 14 11:04:04 2014
GPGPU-Sim uArch: cycles simulated: 11000  inst.: 2313375 (ipc=210.3) sim_rate=34020 (inst/sec) elapsed = 0:0:01:08 / Thu Aug 14 11:04:06 2014
GPGPU-Sim PTX: 2400000 instructions simulated : ctaid=(56,0,0) tid=(461,0,0)
GPGPU-Sim uArch: cycles simulated: 11500  inst.: 2402971 (ipc=209.0) sim_rate=34328 (inst/sec) elapsed = 0:0:01:10 / Thu Aug 14 11:04:08 2014
GPGPU-Sim PTX: 2500000 instructions simulated : ctaid=(57,0,0) tid=(471,0,0)
GPGPU-Sim uArch: cycles simulated: 12000  inst.: 2470255 (ipc=205.9) sim_rate=34309 (inst/sec) elapsed = 0:0:01:12 / Thu Aug 14 11:04:10 2014
GPGPU-Sim PTX: 2600000 instructions simulated : ctaid=(56,0,0) tid=(482,0,0)
GPGPU-Sim uArch: cycles simulated: 12500  inst.: 2539447 (ipc=203.2) sim_rate=34316 (inst/sec) elapsed = 0:0:01:14 / Thu Aug 14 11:04:12 2014
GPGPU-Sim uArch: Shader 1 finished CTA #0 (12682,0), 1 CTAs running
GPGPU-Sim uArch: core:  1, cta: 0 initialized @(12683,0)
GPGPU-Sim uArch: Shader 10 finished CTA #1 (12907,0), 1 CTAs running
GPGPU-Sim uArch: core: 10, cta: 1 initialized @(12908,0)
GPGPU-Sim uArch: Shader 4 finished CTA #0 (12909,0), 1 CTAs running
GPGPU-Sim uArch: core:  4, cta: 0 initialized @(12910,0)
GPGPU-Sim uArch: Shader 11 finished CTA #0 (12911,0), 1 CTAs running
GPGPU-Sim uArch: core: 11, cta: 0 initialized @(12912,0)
GPGPU-Sim uArch: Shader 6 finished CTA #0 (12957,0), 1 CTAs running
GPGPU-Sim uArch: core:  6, cta: 0 initialized @(12958,0)
GPGPU-Sim uArch: Shader 6 finished CTA #1 (12974,0), 1 CTAs running
GPGPU-Sim uArch: core:  6, cta: 1 initialized @(12975,0)
GPGPU-Sim uArch: Shader 3 finished CTA #0 (12976,0), 1 CTAs running
GPGPU-Sim uArch: core:  3, cta: 0 initialized @(12977,0)
GPGPU-Sim uArch: Shader 4 finished CTA #1 (12983,0), 1 CTAs running
GPGPU-Sim uArch: core:  4, cta: 1 initialized @(12984,0)
GPGPU-Sim uArch: cycles simulated: 13000  inst.: 2613076 (ipc=201.0) sim_rate=34382 (inst/sec) elapsed = 0:0:01:16 / Thu Aug 14 11:04:14 2014
GPGPU-Sim PTX: 2700000 instructions simulated : ctaid=(48,0,0) tid=(478,0,0)
GPGPU-Sim uArch: Shader 3 finished CTA #1 (13043,0), 1 CTAs running
GPGPU-Sim uArch: core:  3, cta: 1 initialized @(13044,0)
GPGPU-Sim uArch: Shader 12 finished CTA #1 (13073,0), 1 CTAs running
GPGPU-Sim uArch: core: 12, cta: 1 initialized @(13074,0)
GPGPU-Sim uArch: Shader 11 finished CTA #1 (13130,0), 1 CTAs running
GPGPU-Sim uArch: core: 11, cta: 1 initialized @(13131,0)
GPGPU-Sim uArch: Shader 0 finished CTA #0 (13141,0), 1 CTAs running
GPGPU-Sim uArch: core:  0, cta: 0 initialized @(13142,0)
GPGPU-Sim uArch: Shader 12 finished CTA #0 (13172,0), 1 CTAs running
GPGPU-Sim uArch: core: 12, cta: 0 initialized @(13173,0)
GPGPU-Sim uArch: Shader 10 finished CTA #0 (13174,0), 1 CTAs running
GPGPU-Sim uArch: core: 10, cta: 0 initialized @(13175,0)
GPGPU-Sim uArch: Shader 2 finished CTA #1 (13198,0), 1 CTAs running
GPGPU-Sim uArch: core:  2, cta: 1 initialized @(13199,0)
GPGPU-Sim uArch: Shader 14 finished CTA #0 (13201,0), 1 CTAs running
GPGPU-Sim uArch: core: 14, cta: 0 initialized @(13202,0)
GPGPU-Sim uArch: Shader 7 finished CTA #1 (13216,0), 1 CTAs running
GPGPU-Sim uArch: core:  7, cta: 1 initialized @(13217,0)
GPGPU-Sim PTX: 2800000 instructions simulated : ctaid=(75,0,0) tid=(218,0,0)
GPGPU-Sim uArch: Shader 14 finished CTA #1 (13260,0), 1 CTAs running
GPGPU-Sim uArch: core: 14, cta: 1 initialized @(13261,0)
GPGPU-Sim uArch: Shader 8 finished CTA #1 (13264,0), 1 CTAs running
GPGPU-Sim uArch: core:  8, cta: 1 initialized @(13265,0)
GPGPU-Sim uArch: Shader 13 finished CTA #0 (13270,0), 1 CTAs running
GPGPU-Sim uArch: core: 13, cta: 0 initialized @(13271,0)
GPGPU-Sim uArch: Shader 9 finished CTA #1 (13306,0), 1 CTAs running
GPGPU-Sim uArch: core:  9, cta: 1 initialized @(13307,0)
GPGPU-Sim uArch: Shader 2 finished CTA #0 (13313,0), 1 CTAs running
GPGPU-Sim uArch: core:  2, cta: 0 initialized @(13314,0)
GPGPU-Sim uArch: Shader 13 finished CTA #1 (13362,0), 1 CTAs running
GPGPU-Sim uArch: core: 13, cta: 1 initialized @(13363,0)
GPGPU-Sim uArch: Shader 9 finished CTA #0 (13365,0), 1 CTAs running
GPGPU-Sim uArch: core:  9, cta: 0 initialized @(13366,0)
GPGPU-Sim uArch: Shader 1 finished CTA #1 (13389,0), 1 CTAs running
GPGPU-Sim uArch: core:  1, cta: 1 initialized @(13390,0)
GPGPU-Sim PTX: 2900000 instructions simulated : ctaid=(60,0,0) tid=(341,0,0)
GPGPU-Sim uArch: Shader 5 finished CTA #1 (13438,0), 1 CTAs running
GPGPU-Sim uArch: core:  5, cta: 1 initialized @(13439,0)
GPGPU-Sim uArch: Shader 5 finished CTA #0 (13455,0), 1 CTAs running
GPGPU-Sim uArch: core:  5, cta: 0 initialized @(13456,0)
GPGPU-Sim uArch: Shader 8 finished CTA #0 (13479,0), 1 CTAs running
GPGPU-Sim uArch: core:  8, cta: 0 initialized @(13480,0)
GPGPU-Sim uArch: cycles simulated: 13500  inst.: 2852275 (ipc=211.3) sim_rate=35653 (inst/sec) elapsed = 0:0:01:20 / Thu Aug 14 11:04:18 2014
GPGPU-Sim PTX: 3000000 instructions simulated : ctaid=(85,0,0) tid=(259,0,0)
GPGPU-Sim uArch: Shader 7 finished CTA #0 (13624,0), 1 CTAs running
GPGPU-Sim uArch: core:  7, cta: 0 initialized @(13625,0)
GPGPU-Sim uArch: Shader 0 finished CTA #1 (13758,0), 1 CTAs running
GPGPU-Sim uArch: core:  0, cta: 1 initialized @(13759,0)
GPGPU-Sim PTX: 3100000 instructions simulated : ctaid=(88,0,0) tid=(55,0,0)
GPGPU-Sim uArch: cycles simulated: 14000  inst.: 3053109 (ipc=218.1) sim_rate=36346 (inst/sec) elapsed = 0:0:01:24 / Thu Aug 14 11:04:22 2014
GPGPU-Sim PTX: 3200000 instructions simulated : ctaid=(89,0,0) tid=(318,0,0)
GPGPU-Sim PTX: 3300000 instructions simulated : ctaid=(60,0,0) tid=(502,0,0)
GPGPU-Sim uArch: cycles simulated: 14500  inst.: 3224119 (ipc=222.4) sim_rate=37489 (inst/sec) elapsed = 0:0:01:26 / Thu Aug 14 11:04:24 2014
GPGPU-Sim PTX: 3400000 instructions simulated : ctaid=(66,0,0) tid=(389,0,0)
GPGPU-Sim uArch: cycles simulated: 15000  inst.: 3307520 (ipc=220.5) sim_rate=37585 (inst/sec) elapsed = 0:0:01:28 / Thu Aug 14 11:04:26 2014
GPGPU-Sim PTX: 3500000 instructions simulated : ctaid=(89,0,0) tid=(272,0,0)
GPGPU-Sim uArch: cycles simulated: 15500  inst.: 3411385 (ipc=220.1) sim_rate=37904 (inst/sec) elapsed = 0:0:01:30 / Thu Aug 14 11:04:28 2014
GPGPU-Sim PTX: 3600000 instructions simulated : ctaid=(83,0,0) tid=(314,0,0)
GPGPU-Sim uArch: cycles simulated: 16000  inst.: 3551543 (ipc=222.0) sim_rate=38603 (inst/sec) elapsed = 0:0:01:32 / Thu Aug 14 11:04:30 2014
GPGPU-Sim PTX: 3700000 instructions simulated : ctaid=(83,0,0) tid=(1,0,0)
GPGPU-Sim uArch: cycles simulated: 16500  inst.: 3625069 (ipc=219.7) sim_rate=38564 (inst/sec) elapsed = 0:0:01:34 / Thu Aug 14 11:04:32 2014
GPGPU-Sim PTX: 3800000 instructions simulated : ctaid=(73,0,0) tid=(14,0,0)
GPGPU-Sim uArch: cycles simulated: 17000  inst.: 3714639 (ipc=218.5) sim_rate=38694 (inst/sec) elapsed = 0:0:01:36 / Thu Aug 14 11:04:34 2014
GPGPU-Sim uArch: cycles simulated: 17500  inst.: 3770588 (ipc=215.5) sim_rate=38475 (inst/sec) elapsed = 0:0:01:38 / Thu Aug 14 11:04:36 2014
GPGPU-Sim PTX: 3900000 instructions simulated : ctaid=(69,0,0) tid=(388,0,0)
GPGPU-Sim uArch: Shader 1 finished CTA #0 (17591,0), 1 CTAs running
GPGPU-Sim uArch: core:  1, cta: 0 initialized @(17592,0)
GPGPU-Sim uArch: cycles simulated: 18000  inst.: 3847302 (ipc=213.7) sim_rate=38473 (inst/sec) elapsed = 0:0:01:40 / Thu Aug 14 11:04:38 2014
GPGPU-Sim PTX: 4000000 instructions simulated : ctaid=(78,0,0) tid=(187,0,0)
GPGPU-Sim uArch: Shader 10 finished CTA #1 (18222,0), 1 CTAs running
GPGPU-Sim uArch: core: 10, cta: 1 initialized @(18223,0)
GPGPU-Sim uArch: Shader 11 finished CTA #0 (18462,0), 1 CTAs running
GPGPU-Sim uArch: core: 11, cta: 0 initialized @(18463,0)
GPGPU-Sim uArch: cycles simulated: 18500  inst.: 3919473 (ipc=211.9) sim_rate=38426 (inst/sec) elapsed = 0:0:01:42 / Thu Aug 14 11:04:40 2014
GPGPU-Sim uArch: Shader 6 finished CTA #0 (18594,0), 1 CTAs running
GPGPU-Sim uArch: core:  6, cta: 0 initialized @(18595,0)
GPGPU-Sim uArch: Shader 12 finished CTA #0 (18596,0), 1 CTAs running
GPGPU-Sim uArch: core: 12, cta: 0 initialized @(18597,0)
GPGPU-Sim uArch: Shader 14 finished CTA #1 (18598,0), 1 CTAs running
GPGPU-Sim uArch: core: 14, cta: 1 initialized @(18599,0)
GPGPU-Sim uArch: Shader 3 finished CTA #0 (18600,0), 1 CTAs running
GPGPU-Sim uArch: core:  3, cta: 0 initialized @(18601,0)
GPGPU-Sim uArch: Shader 5 finished CTA #0 (18602,0), 1 CTAs running
GPGPU-Sim uArch: core:  5, cta: 0 initialized @(18603,0)
GPGPU-Sim uArch: Shader 11 finished CTA #1 (18604,0), 1 CTAs running
GPGPU-Sim uArch: core: 11, cta: 1 initialized @(18605,0)
GPGPU-Sim uArch: Shader 12 finished CTA #1 (18608,0), 1 CTAs running
GPGPU-Sim uArch: core: 12, cta: 1 initialized @(18609,0)
GPGPU-Sim uArch: Shader 10 finished CTA #0 (18609,0), 1 CTAs running
GPGPU-Sim uArch: core: 10, cta: 0 initialized @(18610,0)
GPGPU-Sim uArch: Shader 3 finished CTA #1 (18610,0), 1 CTAs running
GPGPU-Sim uArch: core:  3, cta: 1 initialized @(18611,0)
GPGPU-Sim uArch: Shader 6 finished CTA #1 (18619,0), 1 CTAs running
GPGPU-Sim uArch: core:  6, cta: 1 initialized @(18620,0)
GPGPU-Sim uArch: Shader 8 finished CTA #0 (18623,0), 1 CTAs running
GPGPU-Sim uArch: core:  8, cta: 0 initialized @(18624,0)
GPGPU-Sim uArch: Shader 2 finished CTA #0 (18628,0), 1 CTAs running
GPGPU-Sim uArch: core:  2, cta: 0 initialized @(18629,0)
GPGPU-Sim uArch: Shader 9 finished CTA #0 (18633,0), 1 CTAs running
GPGPU-Sim uArch: core:  9, cta: 0 initialized @(18634,0)
GPGPU-Sim uArch: Shader 13 finished CTA #0 (18651,0), 1 CTAs running
GPGPU-Sim uArch: core: 13, cta: 0 initialized @(18652,0)
GPGPU-Sim uArch: Shader 9 finished CTA #1 (18658,0), 1 CTAs running
GPGPU-Sim uArch: core:  9, cta: 1 initialized @(18659,0)
GPGPU-Sim uArch: Shader 5 finished CTA #1 (18685,0), 1 CTAs running
GPGPU-Sim uArch: core:  5, cta: 1 initialized @(18686,0)
GPGPU-Sim uArch: Shader 13 finished CTA #1 (18686,0), 1 CTAs running
GPGPU-Sim uArch: core: 13, cta: 1 initialized @(18687,0)
GPGPU-Sim uArch: Shader 2 finished CTA #1 (18694,0), 1 CTAs running
GPGPU-Sim uArch: core:  2, cta: 1 initialized @(18695,0)
GPGPU-Sim uArch: Shader 14 finished CTA #0 (18706,0), 1 CTAs running
GPGPU-Sim uArch: core: 14, cta: 0 initialized @(18707,0)
GPGPU-Sim PTX: 4100000 instructions simulated : ctaid=(62,0,0) tid=(330,0,0)
GPGPU-Sim uArch: Shader 0 finished CTA #1 (18788,0), 1 CTAs running
GPGPU-Sim uArch: core:  0, cta: 1 initialized @(18789,0)
GPGPU-Sim uArch: Shader 1 finished CTA #1 (18829,0), 1 CTAs running
GPGPU-Sim uArch: core:  1, cta: 1 initialized @(18830,0)
GPGPU-Sim PTX: 4200000 instructions simulated : ctaid=(107,0,0) tid=(79,0,0)
GPGPU-Sim uArch: Shader 7 finished CTA #0 (18891,0), 1 CTAs running
GPGPU-Sim uArch: core:  7, cta: 0 initialized @(18892,0)
GPGPU-Sim uArch: Shader 7 finished CTA #1 (18950,0), 1 CTAs running
GPGPU-Sim uArch: core:  7, cta: 1 initialized @(18951,0)
GPGPU-Sim uArch: Shader 8 finished CTA #1 (18986,0), 1 CTAs running
GPGPU-Sim uArch: core:  8, cta: 1 initialized @(18987,0)
GPGPU-Sim uArch: cycles simulated: 19000  inst.: 4157102 (ipc=218.8) sim_rate=38851 (inst/sec) elapsed = 0:0:01:47 / Thu Aug 14 11:04:45 2014
GPGPU-Sim PTX: 4300000 instructions simulated : ctaid=(105,0,0) tid=(398,0,0)
GPGPU-Sim uArch: Shader 4 finished CTA #1 (19064,0), 1 CTAs running
GPGPU-Sim uArch: core:  4, cta: 1 initialized @(19065,0)
GPGPU-Sim uArch: Shader 4 finished CTA #0 (19173,0), 1 CTAs running
GPGPU-Sim uArch: core:  4, cta: 0 initialized @(19174,0)
GPGPU-Sim PTX: 4400000 instructions simulated : ctaid=(93,0,0) tid=(505,0,0)
GPGPU-Sim uArch: Shader 0 finished CTA #0 (19383,0), 1 CTAs running
GPGPU-Sim uArch: core:  0, cta: 0 initialized @(19384,0)
GPGPU-Sim uArch: cycles simulated: 19500  inst.: 4341116 (ipc=222.6) sim_rate=39464 (inst/sec) elapsed = 0:0:01:50 / Thu Aug 14 11:04:48 2014
GPGPU-Sim PTX: 4500000 instructions simulated : ctaid=(109,0,0) tid=(195,0,0)
GPGPU-Sim PTX: 4600000 instructions simulated : ctaid=(115,0,0) tid=(37,0,0)
GPGPU-Sim uArch: cycles simulated: 20000  inst.: 4523439 (ipc=226.2) sim_rate=40030 (inst/sec) elapsed = 0:0:01:53 / Thu Aug 14 11:04:51 2014
GPGPU-Sim PTX: 4700000 instructions simulated : ctaid=(93,0,0) tid=(219,0,0)
GPGPU-Sim uArch: cycles simulated: 20500  inst.: 4625671 (ipc=225.6) sim_rate=40223 (inst/sec) elapsed = 0:0:01:55 / Thu Aug 14 11:04:53 2014
GPGPU-Sim PTX: 4800000 instructions simulated : ctaid=(104,0,0) tid=(464,0,0)
GPGPU-Sim uArch: cycles simulated: 21000  inst.: 4731944 (ipc=225.3) sim_rate=40443 (inst/sec) elapsed = 0:0:01:57 / Thu Aug 14 11:04:55 2014
GPGPU-Sim PTX: 4900000 instructions simulated : ctaid=(102,0,0) tid=(325,0,0)
GPGPU-Sim PTX: 5000000 instructions simulated : ctaid=(104,0,0) tid=(126,0,0)
GPGPU-Sim uArch: cycles simulated: 21500  inst.: 4862144 (ipc=226.1) sim_rate=40858 (inst/sec) elapsed = 0:0:01:59 / Thu Aug 14 11:04:57 2014
GPGPU-Sim PTX: 5100000 instructions simulated : ctaid=(104,0,0) tid=(347,0,0)
GPGPU-Sim uArch: cycles simulated: 22000  inst.: 4945983 (ipc=224.8) sim_rate=40875 (inst/sec) elapsed = 0:0:02:01 / Thu Aug 14 11:04:59 2014
GPGPU-Sim uArch: cycles simulated: 22500  inst.: 5009604 (ipc=222.6) sim_rate=40728 (inst/sec) elapsed = 0:0:02:03 / Thu Aug 14 11:05:01 2014
GPGPU-Sim PTX: 5200000 instructions simulated : ctaid=(99,0,0) tid=(167,0,0)
GPGPU-Sim uArch: Shader 1 finished CTA #0 (22985,0), 1 CTAs running
GPGPU-Sim uArch: core:  1, cta: 0 initialized @(22986,0)
GPGPU-Sim uArch: cycles simulated: 23000  inst.: 5093777 (ipc=221.5) sim_rate=40750 (inst/sec) elapsed = 0:0:02:05 / Thu Aug 14 11:05:03 2014
GPGPU-Sim PTX: 5300000 instructions simulated : ctaid=(98,0,0) tid=(184,0,0)
GPGPU-Sim uArch: cycles simulated: 23500  inst.: 5171864 (ipc=220.1) sim_rate=40723 (inst/sec) elapsed = 0:0:02:07 / Thu Aug 14 11:05:05 2014
GPGPU-Sim uArch: Shader 10 finished CTA #1 (23522,0), 1 CTAs running
GPGPU-Sim uArch: core: 10, cta: 1 initialized @(23523,0)
GPGPU-Sim uArch: Shader 12 finished CTA #0 (23656,0), 1 CTAs running
GPGPU-Sim uArch: core: 12, cta: 0 initialized @(23657,0)
GPGPU-Sim uArch: Shader 6 finished CTA #0 (23658,0), 1 CTAs running
GPGPU-Sim uArch: core:  6, cta: 0 initialized @(23659,0)
GPGPU-Sim uArch: Shader 9 finished CTA #0 (23666,0), 1 CTAs running
GPGPU-Sim uArch: core:  9, cta: 0 initialized @(23667,0)
GPGPU-Sim uArch: Shader 14 finished CTA #1 (23668,0), 1 CTAs running
GPGPU-Sim uArch: core: 14, cta: 1 initialized @(23669,0)
GPGPU-Sim uArch: Shader 2 finished CTA #1 (23691,0), 1 CTAs running
GPGPU-Sim uArch: core:  2, cta: 1 initialized @(23692,0)
GPGPU-Sim uArch: Shader 13 finished CTA #0 (23734,0), 1 CTAs running
GPGPU-Sim uArch: core: 13, cta: 0 initialized @(23735,0)
GPGPU-Sim uArch: Shader 9 finished CTA #1 (23742,0), 1 CTAs running
GPGPU-Sim uArch: core:  9, cta: 1 initialized @(23743,0)
GPGPU-Sim uArch: Shader 3 finished CTA #1 (23744,0), 1 CTAs running
GPGPU-Sim uArch: core:  3, cta: 1 initialized @(23745,0)
GPGPU-Sim uArch: Shader 2 finished CTA #0 (23749,0), 1 CTAs running
GPGPU-Sim uArch: core:  2, cta: 0 initialized @(23750,0)
GPGPU-Sim PTX: 5400000 instructions simulated : ctaid=(124,0,0) tid=(68,0,0)
GPGPU-Sim uArch: Shader 13 finished CTA #1 (23800,0), 1 CTAs running
GPGPU-Sim uArch: core: 13, cta: 1 initialized @(23801,0)
GPGPU-Sim uArch: Shader 5 finished CTA #0 (23817,0), 1 CTAs running
GPGPU-Sim uArch: core:  5, cta: 0 initialized @(23818,0)
GPGPU-Sim uArch: Shader 7 finished CTA #1 (23833,0), 1 CTAs running
GPGPU-Sim uArch: core:  7, cta: 1 initialized @(23834,0)
GPGPU-Sim uArch: Shader 3 finished CTA #0 (23882,0), 1 CTAs running
GPGPU-Sim uArch: core:  3, cta: 0 initialized @(23883,0)
GPGPU-Sim uArch: Shader 5 finished CTA #1 (23893,0), 1 CTAs running
GPGPU-Sim uArch: core:  5, cta: 1 initialized @(23894,0)
GPGPU-Sim uArch: Shader 11 finished CTA #0 (23900,0), 1 CTAs running
GPGPU-Sim uArch: core: 11, cta: 0 initialized @(23901,0)
GPGPU-Sim PTX: 5500000 instructions simulated : ctaid=(135,0,0) tid=(209,0,0)
GPGPU-Sim uArch: cycles simulated: 24000  inst.: 5335529 (ipc=222.3) sim_rate=40729 (inst/sec) elapsed = 0:0:02:11 / Thu Aug 14 11:05:09 2014
GPGPU-Sim uArch: Shader 6 finished CTA #1 (24032,0), 1 CTAs running
GPGPU-Sim uArch: core:  6, cta: 1 initialized @(24033,0)
GPGPU-Sim uArch: Shader 11 finished CTA #1 (24115,0), 1 CTAs running
GPGPU-Sim uArch: core: 11, cta: 1 initialized @(24116,0)
GPGPU-Sim uArch: Shader 10 finished CTA #0 (24135,0), 1 CTAs running
GPGPU-Sim uArch: core: 10, cta: 0 initialized @(24136,0)
GPGPU-Sim uArch: Shader 8 finished CTA #1 (24136,0), 1 CTAs running
GPGPU-Sim uArch: core:  8, cta: 1 initialized @(24137,0)
GPGPU-Sim uArch: Shader 12 finished CTA #1 (24162,0), 1 CTAs running
GPGPU-Sim uArch: core: 12, cta: 1 initialized @(24163,0)
GPGPU-Sim PTX: 5600000 instructions simulated : ctaid=(141,0,0) tid=(268,0,0)
GPGPU-Sim uArch: Shader 0 finished CTA #1 (24245,0), 1 CTAs running
GPGPU-Sim uArch: core:  0, cta: 1 initialized @(24246,0)
GPGPU-Sim uArch: Shader 14 finished CTA #0 (24291,0), 1 CTAs running
GPGPU-Sim uArch: core: 14, cta: 0 initialized @(24292,0)
GPGPU-Sim uArch: Shader 0 finished CTA #0 (24353,0), 1 CTAs running
GPGPU-Sim uArch: core:  0, cta: 0 initialized @(24354,0)
GPGPU-Sim uArch: Shader 8 finished CTA #0 (24358,0), 1 CTAs running
GPGPU-Sim uArch: core:  8, cta: 0 initialized @(24359,0)
GPGPU-Sim uArch: Shader 4 finished CTA #0 (24432,0), 1 CTAs running
GPGPU-Sim uArch: core:  4, cta: 0 initialized @(24433,0)
GPGPU-Sim PTX: 5700000 instructions simulated : ctaid=(143,0,0) tid=(414,0,0)
GPGPU-Sim uArch: Shader 4 finished CTA #1 (24491,0), 1 CTAs running
GPGPU-Sim uArch: core:  4, cta: 1 initialized @(24492,0)
GPGPU-Sim uArch: cycles simulated: 24500  inst.: 5547183 (ipc=226.4) sim_rate=41090 (inst/sec) elapsed = 0:0:02:15 / Thu Aug 14 11:05:13 2014
GPGPU-Sim uArch: Shader 1 finished CTA #1 (24547,0), 1 CTAs running
GPGPU-Sim uArch: core:  1, cta: 1 initialized @(24548,0)
GPGPU-Sim PTX: 5800000 instructions simulated : ctaid=(144,0,0) tid=(478,0,0)
GPGPU-Sim uArch: Shader 7 finished CTA #0 (24818,0), 1 CTAs running
GPGPU-Sim uArch: core:  7, cta: 0 initialized @(24819,0)
GPGPU-Sim PTX: 5900000 instructions simulated : ctaid=(130,0,0) tid=(340,0,0)
GPGPU-Sim uArch: cycles simulated: 25000  inst.: 5761983 (ipc=230.5) sim_rate=41753 (inst/sec) elapsed = 0:0:02:18 / Thu Aug 14 11:05:16 2014
GPGPU-Sim PTX: 6000000 instructions simulated : ctaid=(125,0,0) tid=(450,0,0)
GPGPU-Sim uArch: cycles simulated: 25500  inst.: 5879481 (ipc=230.6) sim_rate=41996 (inst/sec) elapsed = 0:0:02:20 / Thu Aug 14 11:05:18 2014
GPGPU-Sim PTX: 6100000 instructions simulated : ctaid=(122,0,0) tid=(303,0,0)
GPGPU-Sim uArch: cycles simulated: 26000  inst.: 5973124 (ipc=229.7) sim_rate=41770 (inst/sec) elapsed = 0:0:02:23 / Thu Aug 14 11:05:21 2014
GPGPU-Sim PTX: 6200000 instructions simulated : ctaid=(133,0,0) tid=(163,0,0)
GPGPU-Sim uArch: cycles simulated: 26500  inst.: 6111841 (ipc=230.6) sim_rate=42150 (inst/sec) elapsed = 0:0:02:25 / Thu Aug 14 11:05:23 2014
GPGPU-Sim PTX: 6300000 instructions simulated : ctaid=(140,0,0) tid=(96,0,0)
GPGPU-Sim PTX: 6400000 instructions simulated : ctaid=(135,0,0) tid=(229,0,0)
GPGPU-Sim uArch: cycles simulated: 27000  inst.: 6210533 (ipc=230.0) sim_rate=42248 (inst/sec) elapsed = 0:0:02:27 / Thu Aug 14 11:05:25 2014
GPGPU-Sim uArch: cycles simulated: 27500  inst.: 6284631 (ipc=228.5) sim_rate=42178 (inst/sec) elapsed = 0:0:02:29 / Thu Aug 14 11:05:27 2014
GPGPU-Sim PTX: 6500000 instructions simulated : ctaid=(147,0,0) tid=(15,0,0)
GPGPU-Sim uArch: Shader 1 finished CTA #0 (27767,0), 1 CTAs running
GPGPU-Sim uArch: core:  1, cta: 0 initialized @(27768,0)
GPGPU-Sim uArch: cycles simulated: 28000  inst.: 6367375 (ipc=227.4) sim_rate=42168 (inst/sec) elapsed = 0:0:02:31 / Thu Aug 14 11:05:29 2014
GPGPU-Sim PTX: 6600000 instructions simulated : ctaid=(133,0,0) tid=(33,0,0)
GPGPU-Sim uArch: cycles simulated: 28500  inst.: 6446312 (ipc=226.2) sim_rate=42132 (inst/sec) elapsed = 0:0:02:33 / Thu Aug 14 11:05:31 2014
GPGPU-Sim uArch: Shader 14 finished CTA #1 (28845,0), 1 CTAs running
GPGPU-Sim uArch: core: 14, cta: 1 initialized @(28846,0)
GPGPU-Sim uArch: Shader 6 finished CTA #0 (28869,0), 1 CTAs running
GPGPU-Sim uArch: core:  6, cta: 0 initialized @(28870,0)
GPGPU-Sim uArch: Shader 13 finished CTA #0 (28938,0), 1 CTAs running
GPGPU-Sim uArch: core: 13, cta: 0 initialized @(28939,0)
GPGPU-Sim uArch: Shader 6 finished CTA #1 (28942,0), 1 CTAs running
GPGPU-Sim uArch: core:  6, cta: 1 initialized @(28943,0)
GPGPU-Sim PTX: 6700000 instructions simulated : ctaid=(145,0,0) tid=(335,0,0)
GPGPU-Sim uArch: Shader 3 finished CTA #1 (28953,0), 1 CTAs running
GPGPU-Sim uArch: core:  3, cta: 1 initialized @(28954,0)
GPGPU-Sim uArch: Shader 5 finished CTA #0 (28955,0), 1 CTAs running
GPGPU-Sim uArch: core:  5, cta: 0 initialized @(28956,0)
GPGPU-Sim uArch: Shader 2 finished CTA #0 (28957,0), 1 CTAs running
GPGPU-Sim uArch: core:  2, cta: 0 initialized @(28958,0)
GPGPU-Sim uArch: Shader 13 finished CTA #1 (28975,0), 1 CTAs running
GPGPU-Sim uArch: core: 13, cta: 1 initialized @(28976,0)
GPGPU-Sim uArch: Shader 5 finished CTA #1 (28976,0), 1 CTAs running
GPGPU-Sim uArch: core:  5, cta: 1 initialized @(28977,0)
GPGPU-Sim uArch: Shader 9 finished CTA #1 (28992,0), 1 CTAs running
GPGPU-Sim uArch: core:  9, cta: 1 initialized @(28993,0)
GPGPU-Sim uArch: cycles simulated: 29000  inst.: 6513101 (ipc=224.6) sim_rate=42020 (inst/sec) elapsed = 0:0:02:35 / Thu Aug 14 11:05:33 2014
GPGPU-Sim uArch: Shader 3 finished CTA #0 (29012,0), 1 CTAs running
GPGPU-Sim uArch: Shader 10 finished CTA #0 (29012,0), 1 CTAs running
GPGPU-Sim uArch: core: 10, cta: 0 initialized @(29013,0)
GPGPU-Sim uArch: core:  3, cta: 0 initialized @(29013,0)
GPGPU-Sim uArch: Shader 9 finished CTA #0 (29027,0), 1 CTAs running
GPGPU-Sim uArch: core:  9, cta: 0 initialized @(29028,0)
GPGPU-Sim uArch: Shader 11 finished CTA #1 (29077,0), 1 CTAs running
GPGPU-Sim uArch: core: 11, cta: 1 initialized @(29078,0)
GPGPU-Sim uArch: Shader 11 finished CTA #0 (29094,0), 1 CTAs running
GPGPU-Sim uArch: core: 11, cta: 0 initialized @(29095,0)
GPGPU-Sim PTX: 6800000 instructions simulated : ctaid=(153,0,0) tid=(472,0,0)
GPGPU-Sim uArch: Shader 14 finished CTA #0 (29203,0), 1 CTAs running
GPGPU-Sim uArch: core: 14, cta: 0 initialized @(29204,0)
GPGPU-Sim uArch: Shader 10 finished CTA #1 (29204,0), 1 CTAs running
GPGPU-Sim uArch: core: 10, cta: 1 initialized @(29205,0)
GPGPU-Sim uArch: Shader 2 finished CTA #1 (29227,0), 1 CTAs running
GPGPU-Sim uArch: core:  2, cta: 1 initialized @(29228,0)
GPGPU-Sim uArch: Shader 12 finished CTA #0 (29330,0), 1 CTAs running
GPGPU-Sim uArch: core: 12, cta: 0 initialized @(29331,0)
GPGPU-Sim PTX: 6900000 instructions simulated : ctaid=(167,0,0) tid=(86,0,0)
GPGPU-Sim uArch: Shader 8 finished CTA #1 (29418,0), 1 CTAs running
GPGPU-Sim uArch: core:  8, cta: 1 initialized @(29419,0)
GPGPU-Sim uArch: cycles simulated: 29500  inst.: 6740076 (ipc=228.5) sim_rate=42390 (inst/sec) elapsed = 0:0:02:39 / Thu Aug 14 11:05:37 2014
GPGPU-Sim uArch: Shader 7 finished CTA #1 (29574,0), 1 CTAs running
GPGPU-Sim uArch: core:  7, cta: 1 initialized @(29575,0)
GPGPU-Sim PTX: 7000000 instructions simulated : ctaid=(171,0,0) tid=(444,0,0)
GPGPU-Sim uArch: Shader 4 finished CTA #0 (29625,0), 1 CTAs running
GPGPU-Sim uArch: core:  4, cta: 0 initialized @(29626,0)
GPGPU-Sim uArch: Shader 1 finished CTA #1 (29666,0), 1 CTAs running
GPGPU-Sim uArch: core:  1, cta: 1 initialized @(29667,0)
GPGPU-Sim uArch: Shader 12 finished CTA #1 (29687,0), 1 CTAs running
GPGPU-Sim uArch: core: 12, cta: 1 initialized @(29688,0)
GPGPU-Sim uArch: Shader 4 finished CTA #1 (29701,0), 1 CTAs running
GPGPU-Sim uArch: core:  4, cta: 1 initialized @(29702,0)
GPGPU-Sim uArch: Shader 7 finished CTA #0 (29822,0), 1 CTAs running
GPGPU-Sim uArch: core:  7, cta: 0 initialized @(29823,0)
GPGPU-Sim PTX: 7100000 instructions simulated : ctaid=(156,0,0) tid=(472,0,0)
GPGPU-Sim uArch: Shader 0 finished CTA #1 (29845,0), 1 CTAs running
GPGPU-Sim uArch: core:  0, cta: 1 initialized @(29846,0)
GPGPU-Sim uArch: Shader 0 finished CTA #0 (29952,0), 1 CTAs running
GPGPU-Sim uArch: core:  0, cta: 0 initialized @(29953,0)
GPGPU-Sim uArch: Shader 8 finished CTA #0 (29961,0), 1 CTAs running
GPGPU-Sim uArch: core:  8, cta: 0 initialized @(29962,0)
GPGPU-Sim uArch: cycles simulated: 30000  inst.: 6962624 (ipc=232.1) sim_rate=42715 (inst/sec) elapsed = 0:0:02:43 / Thu Aug 14 11:05:41 2014
GPGPU-Sim PTX: 7200000 instructions simulated : ctaid=(161,0,0) tid=(301,0,0)
GPGPU-Sim PTX: 7300000 instructions simulated : ctaid=(158,0,0) tid=(207,0,0)
GPGPU-Sim uArch: cycles simulated: 30500  inst.: 7114806 (ipc=233.3) sim_rate=42860 (inst/sec) elapsed = 0:0:02:46 / Thu Aug 14 11:05:44 2014
GPGPU-Sim PTX: 7400000 instructions simulated : ctaid=(152,0,0) tid=(33,0,0)
GPGPU-Sim uArch: cycles simulated: 31000  inst.: 7225556 (ipc=233.1) sim_rate=43009 (inst/sec) elapsed = 0:0:02:48 / Thu Aug 14 11:05:46 2014
GPGPU-Sim PTX: 7500000 instructions simulated : ctaid=(159,0,0) tid=(249,0,0)
GPGPU-Sim uArch: cycles simulated: 31500  inst.: 7350801 (ipc=233.4) sim_rate=42987 (inst/sec) elapsed = 0:0:02:51 / Thu Aug 14 11:05:49 2014
GPGPU-Sim PTX: 7600000 instructions simulated : ctaid=(162,0,0) tid=(491,0,0)
GPGPU-Sim uArch: cycles simulated: 32000  inst.: 7456920 (ipc=233.0) sim_rate=43103 (inst/sec) elapsed = 0:0:02:53 / Thu Aug 14 11:05:51 2014
GPGPU-Sim PTX: 7700000 instructions simulated : ctaid=(163,0,0) tid=(271,0,0)
GPGPU-Sim uArch: cycles simulated: 32500  inst.: 7544803 (ipc=232.1) sim_rate=43113 (inst/sec) elapsed = 0:0:02:55 / Thu Aug 14 11:05:53 2014
GPGPU-Sim uArch: Shader 1 finished CTA #0 (32513,0), 1 CTAs running
GPGPU-Sim uArch: core:  1, cta: 0 initialized @(32514,0)
GPGPU-Sim PTX: 7800000 instructions simulated : ctaid=(157,0,0) tid=(142,0,0)
GPGPU-Sim uArch: cycles simulated: 33000  inst.: 7622866 (ipc=231.0) sim_rate=43067 (inst/sec) elapsed = 0:0:02:57 / Thu Aug 14 11:05:55 2014
GPGPU-Sim PTX: 7900000 instructions simulated : ctaid=(160,0,0) tid=(292,0,0)
GPGPU-Sim uArch: cycles simulated: 33500  inst.: 7707410 (ipc=230.1) sim_rate=43058 (inst/sec) elapsed = 0:0:02:59 / Thu Aug 14 11:05:57 2014
GPGPU-Sim uArch: Shader 10 finished CTA #1 (33718,0), 1 CTAs running
GPGPU-Sim uArch: core: 10, cta: 1 initialized @(33719,0)
GPGPU-Sim PTX: 8000000 instructions simulated : ctaid=(173,0,0) tid=(503,0,0)
GPGPU-Sim uArch: Shader 10 finished CTA #0 (33849,0), 1 CTAs running
GPGPU-Sim uArch: core: 10, cta: 0 initialized @(33850,0)
GPGPU-Sim uArch: Shader 6 finished CTA #1 (33897,0), 1 CTAs running
GPGPU-Sim uArch: core:  6, cta: 1 initialized @(33898,0)
GPGPU-Sim uArch: Shader 5 finished CTA #0 (33899,0), 1 CTAs running
GPGPU-Sim uArch: core:  5, cta: 0 initialized @(33900,0)
GPGPU-Sim uArch: Shader 13 finished CTA #1 (33937,0), 1 CTAs running
GPGPU-Sim uArch: core: 13, cta: 1 initialized @(33938,0)
GPGPU-Sim uArch: Shader 11 finished CTA #1 (33957,0), 1 CTAs running
GPGPU-Sim uArch: core: 11, cta: 1 initialized @(33958,0)
GPGPU-Sim uArch: cycles simulated: 34000  inst.: 7795550 (ipc=229.3) sim_rate=42832 (inst/sec) elapsed = 0:0:03:02 / Thu Aug 14 11:06:00 2014
GPGPU-Sim uArch: Shader 6 finished CTA #0 (34012,0), 1 CTAs running
GPGPU-Sim uArch: core:  6, cta: 0 initialized @(34013,0)
GPGPU-Sim uArch: Shader 9 finished CTA #1 (34025,0), 1 CTAs running
GPGPU-Sim uArch: core:  9, cta: 1 initialized @(34026,0)
GPGPU-Sim uArch: Shader 9 finished CTA #0 (34101,0), 1 CTAs running
GPGPU-Sim uArch: core:  9, cta: 0 initialized @(34102,0)
GPGPU-Sim PTX: 8100000 instructions simulated : ctaid=(186,0,0) tid=(332,0,0)
GPGPU-Sim uArch: Shader 13 finished CTA #0 (34193,0), 1 CTAs running
GPGPU-Sim uArch: core: 13, cta: 0 initialized @(34194,0)
GPGPU-Sim uArch: Shader 5 finished CTA #1 (34195,0), 1 CTAs running
GPGPU-Sim uArch: core:  5, cta: 1 initialized @(34196,0)
GPGPU-Sim uArch: Shader 11 finished CTA #0 (34288,0), 1 CTAs running
GPGPU-Sim uArch: core: 11, cta: 0 initialized @(34289,0)
GPGPU-Sim uArch: Shader 14 finished CTA #1 (34327,0), 1 CTAs running
GPGPU-Sim uArch: core: 14, cta: 1 initialized @(34328,0)
GPGPU-Sim uArch: Shader 4 finished CTA #1 (34347,0), 1 CTAs running
GPGPU-Sim uArch: core:  4, cta: 1 initialized @(34348,0)
GPGPU-Sim uArch: Shader 14 finished CTA #0 (34362,0), 1 CTAs running
GPGPU-Sim uArch: core: 14, cta: 0 initialized @(34363,0)
GPGPU-Sim uArch: Shader 12 finished CTA #0 (34376,0), 1 CTAs running
GPGPU-Sim uArch: core: 12, cta: 0 initialized @(34377,0)
GPGPU-Sim PTX: 8200000 instructions simulated : ctaid=(196,0,0) tid=(90,0,0)
GPGPU-Sim uArch: cycles simulated: 34500  inst.: 7973474 (ipc=231.1) sim_rate=43099 (inst/sec) elapsed = 0:0:03:05 / Thu Aug 14 11:06:03 2014
GPGPU-Sim uArch: Shader 2 finished CTA #1 (34513,0), 1 CTAs running
GPGPU-Sim uArch: core:  2, cta: 1 initialized @(34514,0)
GPGPU-Sim uArch: Shader 12 finished CTA #1 (34520,0), 1 CTAs running
GPGPU-Sim uArch: core: 12, cta: 1 initialized @(34521,0)
GPGPU-Sim uArch: Shader 3 finished CTA #0 (34525,0), 1 CTAs running
GPGPU-Sim uArch: core:  3, cta: 0 initialized @(34526,0)
GPGPU-Sim uArch: Shader 4 finished CTA #0 (34591,0), 1 CTAs running
GPGPU-Sim uArch: core:  4, cta: 0 initialized @(34592,0)
GPGPU-Sim PTX: 8300000 instructions simulated : ctaid=(197,0,0) tid=(109,0,0)
GPGPU-Sim uArch: Shader 1 finished CTA #1 (34723,0), 1 CTAs running
GPGPU-Sim uArch: core:  1, cta: 1 initialized @(34724,0)
GPGPU-Sim uArch: Shader 2 finished CTA #0 (34745,0), 1 CTAs running
GPGPU-Sim uArch: core:  2, cta: 0 initialized @(34746,0)
GPGPU-Sim uArch: Shader 3 finished CTA #1 (34856,0), 1 CTAs running
GPGPU-Sim uArch: core:  3, cta: 1 initialized @(34857,0)
GPGPU-Sim uArch: Shader 8 finished CTA #0 (34912,0), 1 CTAs running
GPGPU-Sim uArch: core:  8, cta: 0 initialized @(34913,0)
GPGPU-Sim PTX: 8400000 instructions simulated : ctaid=(204,0,0) tid=(451,0,0)
GPGPU-Sim uArch: Shader 0 finished CTA #0 (34977,0), 1 CTAs running
GPGPU-Sim uArch: core:  0, cta: 0 initialized @(34978,0)
GPGPU-Sim uArch: cycles simulated: 35000  inst.: 8173966 (ipc=233.5) sim_rate=43248 (inst/sec) elapsed = 0:0:03:09 / Thu Aug 14 11:06:07 2014
GPGPU-Sim uArch: Shader 8 finished CTA #1 (35053,0), 1 CTAs running
GPGPU-Sim uArch: core:  8, cta: 1 initialized @(35054,0)
GPGPU-Sim uArch: Shader 7 finished CTA #1 (35073,0), 1 CTAs running
GPGPU-Sim uArch: core:  7, cta: 1 initialized @(35074,0)
GPGPU-Sim PTX: 8500000 instructions simulated : ctaid=(204,0,0) tid=(504,0,0)
GPGPU-Sim uArch: Shader 0 finished CTA #1 (35194,0), 1 CTAs running
GPGPU-Sim uArch: core:  0, cta: 1 initialized @(35195,0)
GPGPU-Sim uArch: Shader 7 finished CTA #0 (35271,0), 1 CTAs running
GPGPU-Sim uArch: core:  7, cta: 0 initialized @(35272,0)
GPGPU-Sim PTX: 8600000 instructions simulated : ctaid=(191,0,0) tid=(502,0,0)
GPGPU-Sim uArch: cycles simulated: 35500  inst.: 8378032 (ipc=236.0) sim_rate=43635 (inst/sec) elapsed = 0:0:03:12 / Thu Aug 14 11:06:10 2014
GPGPU-Sim PTX: 8700000 instructions simulated : ctaid=(187,0,0) tid=(381,0,0)
GPGPU-Sim uArch: cycles simulated: 36000  inst.: 8476572 (ipc=235.5) sim_rate=43693 (inst/sec) elapsed = 0:0:03:14 / Thu Aug 14 11:06:12 2014
GPGPU-Sim PTX: 8800000 instructions simulated : ctaid=(206,0,0) tid=(488,0,0)
GPGPU-Sim uArch: cycles simulated: 36500  inst.: 8617060 (ipc=236.1) sim_rate=43964 (inst/sec) elapsed = 0:0:03:16 / Thu Aug 14 11:06:14 2014
GPGPU-Sim PTX: 8900000 instructions simulated : ctaid=(201,0,0) tid=(199,0,0)
GPGPU-Sim PTX: 9000000 instructions simulated : ctaid=(205,0,0) tid=(126,0,0)
GPGPU-Sim uArch: cycles simulated: 37000  inst.: 8753778 (ipc=236.6) sim_rate=44211 (inst/sec) elapsed = 0:0:03:18 / Thu Aug 14 11:06:16 2014
GPGPU-Sim uArch: cycles simulated: 37500  inst.: 8815017 (ipc=235.1) sim_rate=44075 (inst/sec) elapsed = 0:0:03:20 / Thu Aug 14 11:06:18 2014
GPGPU-Sim PTX: 9100000 instructions simulated : ctaid=(187,0,0) tid=(360,0,0)
GPGPU-Sim uArch: cycles simulated: 38000  inst.: 8908389 (ipc=234.4) sim_rate=44100 (inst/sec) elapsed = 0:0:03:22 / Thu Aug 14 11:06:20 2014
GPGPU-Sim PTX: 9200000 instructions simulated : ctaid=(208,0,0) tid=(487,0,0)
GPGPU-Sim uArch: Shader 1 finished CTA #0 (38467,0), 1 CTAs running
GPGPU-Sim uArch: core:  1, cta: 0 initialized @(38468,0)
GPGPU-Sim uArch: cycles simulated: 38500  inst.: 8973876 (ipc=233.1) sim_rate=44206 (inst/sec) elapsed = 0:0:03:23 / Thu Aug 14 11:06:21 2014
GPGPU-Sim uArch: Shader 5 finished CTA #0 (38584,0), 1 CTAs running
GPGPU-Sim uArch: core:  5, cta: 0 initialized @(38585,0)
GPGPU-Sim uArch: Shader 5 finished CTA #1 (38676,0), 1 CTAs running
GPGPU-Sim uArch: core:  5, cta: 1 initialized @(38677,0)
GPGPU-Sim uArch: Shader 6 finished CTA #0 (38680,0), 1 CTAs running
GPGPU-Sim uArch: core:  6, cta: 0 initialized @(38681,0)
GPGPU-Sim uArch: Shader 13 finished CTA #1 (38693,0), 1 CTAs running
GPGPU-Sim uArch: core: 13, cta: 1 initialized @(38694,0)
GPGPU-Sim uArch: Shader 6 finished CTA #1 (38705,0), 1 CTAs running
GPGPU-Sim uArch: core:  6, cta: 1 initialized @(38706,0)
GPGPU-Sim uArch: Shader 13 finished CTA #0 (38710,0), 1 CTAs running
GPGPU-Sim uArch: core: 13, cta: 0 initialized @(38711,0)
GPGPU-Sim uArch: Shader 9 finished CTA #1 (38713,0), 1 CTAs running
GPGPU-Sim uArch: core:  9, cta: 1 initialized @(38714,0)
GPGPU-Sim PTX: 9300000 instructions simulated : ctaid=(214,0,0) tid=(7,0,0)
GPGPU-Sim uArch: Shader 9 finished CTA #0 (38779,0), 1 CTAs running
GPGPU-Sim uArch: core:  9, cta: 0 initialized @(38780,0)
GPGPU-Sim uArch: Shader 10 finished CTA #1 (38818,0), 1 CTAs running
GPGPU-Sim uArch: core: 10, cta: 1 initialized @(38819,0)
GPGPU-Sim uArch: Shader 10 finished CTA #0 (38917,0), 1 CTAs running
GPGPU-Sim uArch: core: 10, cta: 0 initialized @(38918,0)
GPGPU-Sim PTX: 9400000 instructions simulated : ctaid=(216,0,0) tid=(22,0,0)
GPGPU-Sim uArch: cycles simulated: 39000  inst.: 9116449 (ipc=233.8) sim_rate=44254 (inst/sec) elapsed = 0:0:03:26 / Thu Aug 14 11:06:24 2014
GPGPU-Sim PTX: 9500000 instructions simulated : ctaid=(197,0,0) tid=(185,0,0)
GPGPU-Sim uArch: Shader 11 finished CTA #1 (39476,0), 1 CTAs running
GPGPU-Sim uArch: core: 11, cta: 1 initialized @(39477,0)
GPGPU-Sim uArch: cycles simulated: 39500  inst.: 9226581 (ipc=233.6) sim_rate=44358 (inst/sec) elapsed = 0:0:03:28 / Thu Aug 14 11:06:26 2014
GPGPU-Sim uArch: Shader 4 finished CTA #0 (39813,0), 1 CTAs running
GPGPU-Sim uArch: core:  4, cta: 0 initialized @(39814,0)
GPGPU-Sim uArch: Shader 3 finished CTA #1 (39829,0), 1 CTAs running
GPGPU-Sim uArch: core:  3, cta: 1 initialized @(39830,0)
GPGPU-Sim uArch: Shader 2 finished CTA #0 (39831,0), 1 CTAs running
GPGPU-Sim uArch: core:  2, cta: 0 initialized @(39832,0)
GPGPU-Sim uArch: Shader 8 finished CTA #1 (39837,0), 1 CTAs running
GPGPU-Sim uArch: core:  8, cta: 1 initialized @(39838,0)
GPGPU-Sim uArch: Shader 4 finished CTA #1 (39838,0), 1 CTAs running
GPGPU-Sim uArch: core:  4, cta: 1 initialized @(39839,0)
GPGPU-Sim uArch: Shader 14 finished CTA #0 (39839,0), 1 CTAs running
GPGPU-Sim uArch: core: 14, cta: 0 initialized @(39840,0)
GPGPU-Sim uArch: Shader 3 finished CTA #0 (39846,0), 1 CTAs running
GPGPU-Sim uArch: core:  3, cta: 0 initialized @(39847,0)
GPGPU-Sim uArch: Shader 11 finished CTA #0 (39847,0), 1 CTAs running
GPGPU-Sim uArch: core: 11, cta: 0 initialized @(39848,0)
GPGPU-Sim uArch: Shader 1 finished CTA #1 (39848,0), 1 CTAs running
GPGPU-Sim uArch: Shader 2 finished CTA #1 (39848,0), 1 CTAs running
GPGPU-Sim uArch: core:  1, cta: 1 initialized @(39849,0)
GPGPU-Sim uArch: core:  2, cta: 1 initialized @(39849,0)
GPGPU-Sim uArch: Shader 12 finished CTA #1 (39849,0), 1 CTAs running
GPGPU-Sim uArch: core: 12, cta: 1 initialized @(39850,0)
GPGPU-Sim uArch: Shader 8 finished CTA #0 (39854,0), 1 CTAs running
GPGPU-Sim uArch: core:  8, cta: 0 initialized @(39855,0)
GPGPU-Sim uArch: Shader 14 finished CTA #1 (39861,0), 1 CTAs running
GPGPU-Sim uArch: core: 14, cta: 1 initialized @(39862,0)
GPGPU-Sim uArch: Shader 12 finished CTA #0 (39866,0), 1 CTAs running
GPGPU-Sim uArch: core: 12, cta: 0 initialized @(39867,0)
GPGPU-Sim PTX: 9600000 instructions simulated : ctaid=(233,0,0) tid=(414,0,0)
GPGPU-Sim uArch: cycles simulated: 40000  inst.: 9374203 (ipc=234.4) sim_rate=44427 (inst/sec) elapsed = 0:0:03:31 / Thu Aug 14 11:06:29 2014
GPGPU-Sim PTX: 9700000 instructions simulated : ctaid=(211,0,0) tid=(356,0,0)
GPGPU-Sim PTX: 9800000 instructions simulated : ctaid=(215,0,0) tid=(108,0,0)
GPGPU-Sim uArch: cycles simulated: 40500  inst.: 9565599 (ipc=236.2) sim_rate=44699 (inst/sec) elapsed = 0:0:03:34 / Thu Aug 14 11:06:32 2014
GPGPU-Sim PTX: 9900000 instructions simulated : ctaid=(220,0,0) tid=(306,0,0)
GPGPU-Sim uArch: Shader 0 finished CTA #0 (40884,0), 1 CTAs running
GPGPU-Sim uArch: core:  0, cta: 0 initialized @(40885,0)
GPGPU-Sim uArch: Shader 7 finished CTA #1 (40886,0), 1 CTAs running
GPGPU-Sim uArch: core:  7, cta: 1 initialized @(40887,0)
GPGPU-Sim uArch: Shader 7 finished CTA #0 (40903,0), 1 CTAs running
GPGPU-Sim uArch: core:  7, cta: 0 initialized @(40904,0)
GPGPU-Sim PTX: 10000000 instructions simulated : ctaid=(218,0,0) tid=(199,0,0)
GPGPU-Sim uArch: cycles simulated: 41000  inst.: 9708429 (ipc=236.8) sim_rate=44946 (inst/sec) elapsed = 0:0:03:36 / Thu Aug 14 11:06:34 2014
GPGPU-Sim uArch: Shader 0 finished CTA #1 (41032,0), 1 CTAs running
GPGPU-Sim uArch: core:  0, cta: 1 initialized @(41033,0)
GPGPU-Sim PTX: 10100000 instructions simulated : ctaid=(237,0,0) tid=(372,0,0)
GPGPU-Sim uArch: cycles simulated: 41500  inst.: 9832893 (ipc=236.9) sim_rate=45105 (inst/sec) elapsed = 0:0:03:38 / Thu Aug 14 11:06:36 2014
GPGPU-Sim PTX: 10200000 instructions simulated : ctaid=(231,0,0) tid=(256,0,0)
GPGPU-Sim uArch: cycles simulated: 42000  inst.: 9958850 (ipc=237.1) sim_rate=45267 (inst/sec) elapsed = 0:0:03:40 / Thu Aug 14 11:06:38 2014
GPGPU-Sim PTX: 10300000 instructions simulated : ctaid=(227,0,0) tid=(283,0,0)
GPGPU-Sim uArch: cycles simulated: 42500  inst.: 10069081 (ipc=236.9) sim_rate=45356 (inst/sec) elapsed = 0:0:03:42 / Thu Aug 14 11:06:40 2014
GPGPU-Sim PTX: 10400000 instructions simulated : ctaid=(212,0,0) tid=(220,0,0)
GPGPU-Sim uArch: cycles simulated: 43000  inst.: 10142697 (ipc=235.9) sim_rate=45279 (inst/sec) elapsed = 0:0:03:44 / Thu Aug 14 11:06:42 2014
GPGPU-Sim PTX: 10500000 instructions simulated : ctaid=(227,0,0) tid=(108,0,0)
GPGPU-Sim uArch: cycles simulated: 43500  inst.: 10224440 (ipc=235.0) sim_rate=45240 (inst/sec) elapsed = 0:0:03:46 / Thu Aug 14 11:06:44 2014
GPGPU-Sim uArch: Shader 6 finished CTA #0 (43717,0), 1 CTAs running
GPGPU-Sim uArch: core:  6, cta: 0 initialized @(43718,0)
GPGPU-Sim uArch: Shader 6 finished CTA #1 (43742,0), 1 CTAs running
GPGPU-Sim uArch: core:  6, cta: 1 initialized @(43743,0)
GPGPU-Sim uArch: Shader 9 finished CTA #0 (43767,0), 1 CTAs running
GPGPU-Sim uArch: core:  9, cta: 0 initialized @(43768,0)
GPGPU-Sim uArch: Shader 10 finished CTA #0 (43769,0), 1 CTAs running
GPGPU-Sim uArch: core: 10, cta: 0 initialized @(43770,0)
GPGPU-Sim uArch: Shader 5 finished CTA #0 (43779,0), 1 CTAs running
GPGPU-Sim uArch: core:  5, cta: 0 initialized @(43780,0)
GPGPU-Sim uArch: Shader 9 finished CTA #1 (43784,0), 1 CTAs running
GPGPU-Sim uArch: core:  9, cta: 1 initialized @(43785,0)
GPGPU-Sim uArch: Shader 10 finished CTA #1 (43786,0), 1 CTAs running
GPGPU-Sim uArch: core: 10, cta: 1 initialized @(43787,0)
GPGPU-Sim uArch: Shader 5 finished CTA #1 (43796,0), 1 CTAs running
GPGPU-Sim uArch: core:  5, cta: 1 initialized @(43797,0)
GPGPU-Sim PTX: 10600000 instructions simulated : ctaid=(246,0,0) tid=(326,0,0)
GPGPU-Sim uArch: Shader 1 finished CTA #0 (43942,0), 1 CTAs running
GPGPU-Sim uArch: core:  1, cta: 0 initialized @(43943,0)
GPGPU-Sim uArch: cycles simulated: 44000  inst.: 10326513 (ipc=234.7) sim_rate=45291 (inst/sec) elapsed = 0:0:03:48 / Thu Aug 14 11:06:46 2014
GPGPU-Sim PTX: 10700000 instructions simulated : ctaid=(240,0,0) tid=(312,0,0)
GPGPU-Sim uArch: Shader 13 finished CTA #0 (44201,0), 1 CTAs running
GPGPU-Sim uArch: core: 13, cta: 0 initialized @(44202,0)
GPGPU-Sim uArch: Shader 13 finished CTA #1 (44218,0), 1 CTAs running
GPGPU-Sim uArch: core: 13, cta: 1 initialized @(44219,0)
GPGPU-Sim PTX: 10800000 instructions simulated : ctaid=(247,0,0) tid=(102,0,0)
GPGPU-Sim uArch: cycles simulated: 44500  inst.: 10472547 (ipc=235.3) sim_rate=45335 (inst/sec) elapsed = 0:0:03:51 / Thu Aug 14 11:06:49 2014
GPGPU-Sim uArch: cycles simulated: 45000  inst.: 10552905 (ipc=234.5) sim_rate=45486 (inst/sec) elapsed = 0:0:03:52 / Thu Aug 14 11:06:50 2014
GPGPU-Sim uArch: Shader 11 finished CTA #1 (45027,0), 1 CTAs running
GPGPU-Sim uArch: core: 11, cta: 1 initialized @(45028,0)
GPGPU-Sim PTX: 10900000 instructions simulated : ctaid=(249,0,0) tid=(366,0,0)
GPGPU-Sim uArch: Shader 3 finished CTA #1 (45099,0), 1 CTAs running
GPGPU-Sim uArch: core:  3, cta: 1 initialized @(45100,0)
GPGPU-Sim uArch: Shader 14 finished CTA #1 (45141,0), 1 CTAs running
GPGPU-Sim uArch: core: 14, cta: 1 initialized @(45142,0)
GPGPU-Sim uArch: Shader 4 finished CTA #0 (45143,0), 1 CTAs running
GPGPU-Sim uArch: core:  4, cta: 0 initialized @(45144,0)
GPGPU-Sim uArch: Shader 14 finished CTA #0 (45176,0), 1 CTAs running
GPGPU-Sim uArch: core: 14, cta: 0 initialized @(45177,0)
GPGPU-Sim uArch: Shader 8 finished CTA #1 (45177,0), 1 CTAs running
GPGPU-Sim uArch: core:  8, cta: 1 initialized @(45178,0)
GPGPU-Sim uArch: Shader 12 finished CTA #1 (45197,0), 1 CTAs running
GPGPU-Sim uArch: core: 12, cta: 1 initialized @(45198,0)
GPGPU-Sim uArch: Shader 2 finished CTA #0 (45200,0), 1 CTAs running
GPGPU-Sim uArch: core:  2, cta: 0 initialized @(45201,0)
GPGPU-Sim uArch: Shader 12 finished CTA #0 (45214,0), 1 CTAs running
GPGPU-Sim uArch: core: 12, cta: 0 initialized @(45215,0)
GPGPU-Sim uArch: Shader 8 finished CTA #0 (45308,0), 1 CTAs running
GPGPU-Sim uArch: core:  8, cta: 0 initialized @(45309,0)
GPGPU-Sim uArch: Shader 2 finished CTA #1 (45345,0), 1 CTAs running
GPGPU-Sim uArch: core:  2, cta: 1 initialized @(45346,0)
GPGPU-Sim PTX: 11000000 instructions simulated : ctaid=(259,0,0) tid=(426,0,0)
GPGPU-Sim uArch: cycles simulated: 45500  inst.: 10718368 (ipc=235.6) sim_rate=45610 (inst/sec) elapsed = 0:0:03:55 / Thu Aug 14 11:06:53 2014
GPGPU-Sim uArch: Shader 11 finished CTA #0 (45512,0), 1 CTAs running
GPGPU-Sim uArch: core: 11, cta: 0 initialized @(45513,0)
GPGPU-Sim uArch: Shader 7 finished CTA #0 (45532,0), 1 CTAs running
GPGPU-Sim uArch: core:  7, cta: 0 initialized @(45533,0)
GPGPU-Sim PTX: 11100000 instructions simulated : ctaid=(263,0,0) tid=(161,0,0)
GPGPU-Sim uArch: Shader 1 finished CTA #1 (45876,0), 1 CTAs running
GPGPU-Sim uArch: core:  1, cta: 1 initialized @(45877,0)
GPGPU-Sim uArch: Shader 3 finished CTA #0 (45903,0), 1 CTAs running
GPGPU-Sim uArch: core:  3, cta: 0 initialized @(45904,0)
GPGPU-Sim PTX: 11200000 instructions simulated : ctaid=(265,0,0) tid=(488,0,0)
GPGPU-Sim uArch: cycles simulated: 46000  inst.: 10870583 (ipc=236.3) sim_rate=45674 (inst/sec) elapsed = 0:0:03:58 / Thu Aug 14 11:06:56 2014
GPGPU-Sim uArch: Shader 4 finished CTA #1 (46053,0), 1 CTAs running
GPGPU-Sim uArch: core:  4, cta: 1 initialized @(46054,0)
GPGPU-Sim uArch: Shader 0 finished CTA #1 (46077,0), 1 CTAs running
GPGPU-Sim uArch: core:  0, cta: 1 initialized @(46078,0)
GPGPU-Sim uArch: Shader 0 finished CTA #0 (46153,0), 1 CTAs running
GPGPU-Sim uArch: core:  0, cta: 0 initialized @(46154,0)
GPGPU-Sim uArch: Shader 7 finished CTA #1 (46239,0), 1 CTAs running
GPGPU-Sim uArch: core:  7, cta: 1 initialized @(46240,0)
GPGPU-Sim PTX: 11300000 instructions simulated : ctaid=(258,0,0) tid=(306,0,0)
GPGPU-Sim PTX: 11400000 instructions simulated : ctaid=(269,0,0) tid=(356,0,0)
GPGPU-Sim uArch: cycles simulated: 46500  inst.: 11061669 (ipc=237.9) sim_rate=45899 (inst/sec) elapsed = 0:0:04:01 / Thu Aug 14 11:06:59 2014
GPGPU-Sim PTX: 11500000 instructions simulated : ctaid=(263,0,0) tid=(164,0,0)
GPGPU-Sim uArch: cycles simulated: 47000  inst.: 11171391 (ipc=237.7) sim_rate=45972 (inst/sec) elapsed = 0:0:04:03 / Thu Aug 14 11:07:01 2014
GPGPU-Sim PTX: 11600000 instructions simulated : ctaid=(241,0,0) tid=(285,0,0)
[...]
dq_lat_table:0 	0 	0 	0 	0 	0 	0 	0 	0 	0 	0 	0 	0 	0 	0 	0 	0 	0 	0 	0 	0 	0 	0 	0 	0 	0 	0 	0 	0 	0 	0 	0 	
mf_lat_table:0 	0 	0 	0 	0 	0 	0 	463380 	492869 	1462 	0 	0 	0 	0 	0 	0 	0 	0 	0 	0 	0 	0 	0 	0 	0 	0 	0 	0 	0 	0 	0 	0 	
icnt2mem_lat_table:0 	0 	0 	723984 	211363 	21728 	573 	255 	3 	0 	0 	0 	0 	0 	0 	0 	0 	0 	0 	0 	0 	0 	0 	0 	
icnt2sh_lat_table:0 	0 	0 	120462 	214280 	299597 	204186 	9186 	0 	0 	0 	120 	180 	500 	924 	1853 	3715 	7471 	14932 	29912 	50393 	0 	0 	0 	
mf_lat_pw_table:0 	0 	0 	0 	0 	0 	0 	2023 	1989 	0 	0 	0 	0 	0 	0 	0 	0 	0 	0 	0 	0 	0 	0 	0 	0 	0 	0 	0 	0 	0 	0 	0 	
maximum concurrent accesses to same row:
dram[0]:         6         5         5         5        12        10        20        14         5         9        10         5        10         7         6        10 
dram[1]:         6         6         5         6        11        12        21        21         9        10         6         6        10        10         5         5 
dram[2]:         5         5         6         6        11        11        16        19         7        10         5         6        10        10         9         6 
dram[3]:         6         5         5         5        14        11        21        17         9        11         6         6        10         8         7         6 
dram[4]:         5         6         6         5         8        10        15        21         6        10         6         6        10         7         5         6 
dram[5]:         6         7         5         5        10        13        17        19        10         7         5         5        10        11        10         6 
maximum service time to same row:
dram[0]:      6555      6566      7756      6135     11796      8124      5941      6613      7855      6309      7640      9495      9029      8293      8442      6719 
dram[1]:      6862      8388      5912      5940      7878      8916      7876     10080      7609      7273      8560     10256      9036      8734      8298      7066 
dram[2]:      8882      7268      7076      8388      8419      8697      6256      7752      6231      7797      7462     10399      8441      6981      8103      8505 
dram[3]:      7004      9743      7007      8387      8035      7475      5856      5467      6411      7955      6027     10507      9241      7240      7029      8262 
dram[4]:      7707      6991      6762      9620      7581      7442      7856      6681      6720      7484      8882     10515      9233      8507      6169      8547 
dram[5]:      8671      6879      8097      9428      7753     10104     11056      8297      8441      6121      8250     10974      8926      7287      7264      6357 
average row accesses per activate:
dram[0]:  1.853801  1.878904  1.839875  1.851395  1.836802  1.854236  1.779036  1.803129  1.835523  1.821741  1.816751  1.821875  1.896665  1.883937  1.879462  1.886973 
dram[1]:  1.858716  1.851476  1.859382  1.805456  1.829076  1.819807  1.796083  1.792371  1.852405  1.854554  1.794778  1.824765  1.865848  1.876002  1.875909  1.834730 
dram[2]:  1.853512  1.849265  1.873297  1.861022  1.840376  1.827918  1.775276  1.792667  1.838680  1.835895  1.828850  1.831139  1.868492  1.884072  1.869406  1.820923 
dram[3]:  1.855738  1.867976  1.836717  1.861781  1.829380  1.844362  1.780467  1.789251  1.862535  1.851636  1.803877  1.817446  1.879713  1.878106  1.867120  1.849791 
dram[4]:  1.828198  1.864113  1.861086  1.848651  1.842252  1.843238  1.782906  1.797649  1.847481  1.852901  1.844475  1.822826  1.853680  1.879776  1.843039  1.852710 
dram[5]:  1.851236  1.871274  1.859148  1.830172  1.832632  1.849146  1.776451  1.788216  1.852955  1.845361  1.812582  1.805403  1.860146  1.867907  1.839161  1.870318 
average row locality = 388346/211019 = 1.840337
number of total memory accesses made:
dram[0]:         0         0         0         0         0         0         0         0         0         0         0         0         0         0         0         0 
dram[1]:         0         0         0         0         0         0         0         0         0         0         0         0         0         0         0         0 
dram[2]:         0         0         0         0         0         0         0         0         0         0         0         0         0         0         0         0 
dram[3]:         0         0         0         0         0         0         0         0         0         0         0         0         0         0         0         0 
dram[4]:         0         0         0         0         0         0         0         0         0         0         0         0         0         0         0         0 
dram[5]:         0         0         0         0         0         0         0         0         0         0         0         0         0         0         0         0 
total accesses: 0
min_bank_accesses = 0!
min_chip_accesses = 0!
number of total read accesses:
dram[0]:      4028      3814      4125      4049      3879      3912      4183      4089      3915      3815      3848      4011      3897      3902      3972      3852 
dram[1]:      3955      3917      4152      4037      3934      3963      4159      4075      3833      3831      3846      4012      3957      3831      4040      3873 
dram[2]:      3916      3917      4125      4044      3916      3988      4119      4047      3874      3911      3870      3962      4022      3855      4005      3918 
dram[3]:      3862      3990      4162      4014      4004      3952      4206      4168      3858      3976      3929      3974      4034      3874      4028      3924 
dram[4]:      3817      3983      4046      4043      3953      3933      4112      4222      3819      3973      3984      3889      3995      3890      3971      3936 
dram[5]:      3794      4046      3973      4052      3914      3892      4104      4278      3777      3968      4052      3874      3939      3954      3860      3932 
total reads: 381125
bank skew: 4278/3777 = 1.13
chip skew: 63955/63291 = 1.01
number of total write accesses:
dram[0]:        93        96         0         0         4         6        60        60       136       140        78        70       141       156        82        88 
dram[1]:        97        97         0         0         4         6        60        60       133       160        72        70       146       148        87        68 
dram[2]:        95       107         0         0         4         6        60        60       138       150        73        72       141       143        89        68 
dram[3]:       100        99         0         0         6         6        60        60       139       155        72        68       154       132        89        66 
dram[4]:        99       105         0         0         6         6        60        60       142       146        72        72       135       144        80        64 
dram[5]:       101        97         0         0         6         6        60        62       142       149        68        69       131       161        85        63 
total reads: 7221
min_bank_accesses = 0!
chip skew: 1210/1191 = 1.02
average mf latency per bank:
dram[0]:        399       407       356       359      1038      1000      1258      1292       505       510       532       528       448       448       403       407
dram[1]:        402       407       360       364      1009      1201      1274      1444       512       516       533       535       448       453       405       409
dram[2]:        405       405       360       366      1022      1315      1302      1327       511       510       535       534       449       451       411       405
dram[3]:        408       408       361       369      1123      1279      1394      1316       509       507       533       539       453       453       408       410
dram[4]:        403       409       356       367       973      1287      1264      1318       510       512       526       538       446       454       404       413
dram[5]:        402       406       357       363       983      1344      1268      1354       511       509       522       538       446       448       405       410
maximum mf latency per bank:
dram[0]:        588       597       622       627       591       582       574       601       553       548       579       612       553       603       622       594
dram[1]:        605       593       642       568       611       566       599       571       549       552       573       545       629       568       608       562
dram[2]:        548       559       553       547       619       591       577       571       591       554       546       599       552       538       580       614
dram[3]:        531       556       582       600       583       601       602       668       563       543       550       561       625       575       571       618
dram[4]:        546       553       545       583       551       634       575       559       603       538       536       559       551       568       574       590
dram[5]:        577       554       583       572       567       569       590       564       536       557       556       549       520       572       538       571

Number of Memory Banks Accessed per Memory Operation per Warp (from 0):
0	0	0	0	0	0	0	0	0	0	0	0	0	0	0	0	0	0	0	0	0	0	0	0	0	0	0	0	0	0	0	0	0	0	0	0	0	0	0	0	0	0	0	0	0	0	0	0	0	0	0	0	0	0	0	0	0	0	0	0	0	0	0	0	0	0	0	0	0	0	0	0	0	0	0	0	0	0	0	0	0	0	0	0	0	0	0	0	0	0	0	0	0	0	0	0	
Average # of Memory Banks Accessed per Memory Operation per Warp=-nan

position of mrq chosen
0	0	0	0	0	0	0	0	0	0	0	0	0	0	0	0	

average position of mrq chosen = -nan
Memory Partition 0: 
Cache L2_bank_000:
MSHR contents

Cache L2_bank_001:
MSHR contents

In Dram Latency Queue (total = 0): 
DRAM[0]: 16 bks, busW=4 BL=8 CL=12, tRRD=2 tCCD=6, tRCD=12 tRAS=28 tRP=12 tRC=40
n_cmd=2649893 n_nop=2451645 n_act=34954 n_pre=34938 n_req=64501 n_rd=126582 n_write=1774 bw_util=0.09688
n_activity=1144824 dram_eff=0.2242
bk0: 8056a 2570028i bk1: 7628a 2574391i bk2: 8250a 2569647i bk3: 8098a 2570985i bk4: 7758a 2573541i bk5: 7824a 2573623i bk6: 8366a 2564086i bk7: 8178a 2565831i bk8: 7830a 2570064i bk9: 7630a 2570846i bk10: 7696a 2571300i bk11: 8022a 2568803i bk12: 7794a 2571867i bk13: 7804a 2570382i bk14: 7944a 2571422i bk15: 7704a 2572911i 
dram_util_bins: 0 0 0 0 0 0 0 0 0 0
dram_eff_bins: 0 0 0 0 0 0 0 0 0 0
mrqq: max=11 avg=0.215941
Memory Partition 1: 
Cache L2_bank_002:
MSHR contents

Cache L2_bank_003:
MSHR contents

In Dram Latency Queue (total = 0): 
DRAM[1]: 16 bks, busW=4 BL=8 CL=12, tRRD=2 tCCD=6, tRCD=12 tRAS=28 tRP=12 tRC=40
n_cmd=2649893 n_nop=2450931 n_act=35188 n_pre=35172 n_req=64623 n_rd=126830 n_write=1772 bw_util=0.09706
n_activity=1147594 dram_eff=0.2241
bk0: 7910a 2571272i bk1: 7834a 2571676i bk2: 8304a 2569658i bk3: 8074a 2570049i bk4: 7868a 2572052i bk5: 7926a 2571595i bk6: 8318a 2564865i bk7: 8150a 2565543i bk8: 7666a 2572159i bk9: 7662a 2571278i bk10: 7692a 2570900i bk11: 8024a 2568529i bk12: 7914a 2569353i bk13: 7662a 2571807i bk14: 8080a 2569612i bk15: 7746a 2571583i 
dram_util_bins: 0 0 0 0 0 0 0 0 0 0
dram_eff_bins: 0 0 0 0 0 0 0 0 0 0
mrqq: max=10 avg=0.215188
Memory Partition 2: 
Cache L2_bank_004:
MSHR contents

Cache L2_bank_005:
MSHR contents

In Dram Latency Queue (total = 0): 
DRAM[2]: 16 bks, busW=4 BL=8 CL=12, tRRD=2 tCCD=6, tRCD=12 tRAS=28 tRP=12 tRC=40
n_cmd=2649893 n_nop=2450848 n_act=35157 n_pre=35141 n_req=64695 n_rd=126978 n_write=1769 bw_util=0.09717
n_activity=1146337 dram_eff=0.2246
bk0: 7832a 2571717i bk1: 7834a 2571082i bk2: 8250a 2570558i bk3: 8088a 2571275i bk4: 7832a 2573129i bk5: 7976a 2571206i bk6: 8238a 2564799i bk7: 8094a 2565853i bk8: 7748a 2570562i bk9: 7822a 2569810i bk10: 7740a 2571667i bk11: 7924a 2570054i bk12: 8044a 2568052i bk13: 7710a 2571601i bk14: 8010a 2569756i bk15: 7836a 2570654i 
dram_util_bins: 0 0 0 0 0 0 0 0 0 0
dram_eff_bins: 0 0 0 0 0 0 0 0 0 0
mrqq: max=13 avg=0.217637
Memory Partition 3: 
Cache L2_bank_006:
MSHR contents

Cache L2_bank_007:
MSHR contents

In Dram Latency Queue (total = 0): 
DRAM[3]: 16 bks, busW=4 BL=8 CL=12, tRRD=2 tCCD=6, tRCD=12 tRAS=28 tRP=12 tRC=40
n_cmd=2649893 n_nop=2449457 n_act=35385 n_pre=35369 n_req=65161 n_rd=127910 n_write=1772 bw_util=0.09788
n_activity=1149599 dram_eff=0.2256
bk0: 7724a 2572583i bk1: 7980a 2570650i bk2: 8324a 2568526i bk3: 8028a 2571016i bk4: 8008a 2570815i bk5: 7904a 2572323i bk6: 8412a 2563102i bk7: 8336a 2563391i bk8: 7716a 2571627i bk9: 7952a 2568536i bk10: 7858a 2569613i bk11: 7948a 2569019i bk12: 8068a 2568418i bk13: 7748a 2571492i bk14: 8056a 2569443i bk15: 7848a 2570809i 
dram_util_bins: 0 0 0 0 0 0 0 0 0 0
dram_eff_bins: 0 0 0 0 0 0 0 0 0 0
mrqq: max=12 avg=0.217674
Memory Partition 4: 
Cache L2_bank_008:
MSHR contents

Cache L2_bank_009:
MSHR contents

In Dram Latency Queue (total = 0): 
DRAM[4]: 16 bks, busW=4 BL=8 CL=12, tRRD=2 tCCD=6, tRCD=12 tRAS=28 tRP=12 tRC=40
n_cmd=2649893 n_nop=2450674 n_act=35174 n_pre=35158 n_req=64757 n_rd=127132 n_write=1755 bw_util=0.09728
n_activity=1146017 dram_eff=0.2249
bk0: 7634a 2572743i bk1: 7966a 2570158i bk2: 8092a 2571491i bk3: 8086a 2571096i bk4: 7906a 2572016i bk5: 7866a 2572718i bk6: 8224a 2565310i bk7: 8444a 2562997i bk8: 7638a 2572025i bk9: 7946a 2568706i bk10: 7968a 2569814i bk11: 7778a 2570914i bk12: 7990a 2568471i bk13: 7780a 2570689i bk14: 7942a 2569966i bk15: 7872a 2570802i 
dram_util_bins: 0 0 0 0 0 0 0 0 0 0
dram_eff_bins: 0 0 0 0 0 0 0 0 0 0
mrqq: max=12 avg=0.217241
Memory Partition 5: 
Cache L2_bank_010:
MSHR contents

Cache L2_bank_011:
MSHR contents

In Dram Latency Queue (total = 0): 
DRAM[5]: 16 bks, busW=4 BL=8 CL=12, tRRD=2 tCCD=6, tRCD=12 tRAS=28 tRP=12 tRC=40
n_cmd=2649893 n_nop=2451002 n_act=35162 n_pre=35146 n_req=64609 n_rd=126818 n_write=1765 bw_util=0.09705
n_activity=1154097 dram_eff=0.2228
bk0: 7588a 2573942i bk1: 8092a 2569973i bk2: 7946a 2573238i bk3: 8104a 2570478i bk4: 7828a 2573045i bk5: 7784a 2573977i bk6: 8208a 2565463i bk7: 8556a 2561301i bk8: 7554a 2572931i bk9: 7936a 2569011i bk10: 8104a 2567538i bk11: 7748a 2570464i bk12: 7878a 2570091i bk13: 7908a 2569217i bk14: 7720a 2571567i bk15: 7864a 2571188i 
dram_util_bins: 0 0 0 0 0 0 0 0 0 0
dram_eff_bins: 0 0 0 0 0 0 0 0 0 0
mrqq: max=12 avg=0.215167

========= L2 cache stats =========
L2_cache_bank[0]: Access = 77546, Miss = 31847, Miss_rate = 0.411, Pending_hits = 520, Reservation_fails = 1838
L2_cache_bank[1]: Access = 75842, Miss = 31444, Miss_rate = 0.415, Pending_hits = 531, Reservation_fails = 1659
L2_cache_bank[2]: Access = 76767, Miss = 31876, Miss_rate = 0.415, Pending_hits = 502, Reservation_fails = 1814
L2_cache_bank[3]: Access = 83259, Miss = 31539, Miss_rate = 0.379, Pending_hits = 540, Reservation_fails = 1816
L2_cache_bank[4]: Access = 76848, Miss = 31847, Miss_rate = 0.414, Pending_hits = 509, Reservation_fails = 2031
L2_cache_bank[5]: Access = 83014, Miss = 31642, Miss_rate = 0.381, Pending_hits = 537, Reservation_fails = 1526
L2_cache_bank[6]: Access = 82890, Miss = 32083, Miss_rate = 0.387, Pending_hits = 539, Reservation_fails = 1940
L2_cache_bank[7]: Access = 82000, Miss = 31872, Miss_rate = 0.389, Pending_hits = 512, Reservation_fails = 1593
L2_cache_bank[8]: Access = 76683, Miss = 31697, Miss_rate = 0.413, Pending_hits = 499, Reservation_fails = 2411
L2_cache_bank[9]: Access = 81967, Miss = 31869, Miss_rate = 0.389, Pending_hits = 543, Reservation_fails = 1641
L2_cache_bank[10]: Access = 75981, Miss = 31413, Miss_rate = 0.413, Pending_hits = 507, Reservation_fails = 1946
L2_cache_bank[11]: Access = 85109, Miss = 31996, Miss_rate = 0.376, Pending_hits = 553, Reservation_fails = 2074
L2_total_cache_accesses = 957906
L2_total_cache_misses = 381125
L2_total_cache_miss_rate = 0.3979
L2_total_cache_pending_hits = 6292
L2_total_cache_reservation_fails = 22289
L2_total_cache_breakdown:
	L2_cache_stats_breakdown[GLOBAL_ACC_R][HIT] = 464152
	L2_cache_stats_breakdown[GLOBAL_ACC_R][HIT_RESERVED] = 3857
	L2_cache_stats_breakdown[GLOBAL_ACC_R][MISS] = 379672
	L2_cache_stats_breakdown[GLOBAL_ACC_R][RESERVATION_FAIL] = 7220
	L2_cache_stats_breakdown[CONST_ACC_R][HIT] = 26
	L2_cache_stats_breakdown[CONST_ACC_R][HIT_RESERVED] = 3
	L2_cache_stats_breakdown[CONST_ACC_R][MISS] = 1
	L2_cache_stats_breakdown[CONST_ACC_R][RESERVATION_FAIL] = 100
	L2_cache_stats_breakdown[GLOBAL_ACC_W][HIT] = 106165
	L2_cache_stats_breakdown[GLOBAL_ACC_W][HIT_RESERVED] = 2396
	L2_cache_stats_breakdown[GLOBAL_ACC_W][MISS] = 1439
	L2_cache_stats_breakdown[GLOBAL_ACC_W][RESERVATION_FAIL] = 14067
	L2_cache_stats_breakdown[INST_ACC_R][HIT] = 146
	L2_cache_stats_breakdown[INST_ACC_R][HIT_RESERVED] = 36
	L2_cache_stats_breakdown[INST_ACC_R][MISS] = 13
	L2_cache_stats_breakdown[INST_ACC_R][RESERVATION_FAIL] = 902
L2_cache_data_port_util = 0.082
L2_cache_fill_port_util = 0.063

icnt_total_pkts_mem_to_simt=4349470
icnt_total_pkts_simt_to_mem=1067906
LD_mem_lat_dist  0 0 0 0 0 0 0 0 0 0 0 0 0 0 0 0 0 0 0 0 0 0 0 0 0 0 0
ST_mem_lat_dist  0 0 0 0 0 0 0 0 0 0 0 0 0 0 0 0 0 0 0 0 0 0 0 0 0 0 0
----------------------------Interconnect-DETAILS--------------------------------
Class 0:
Packet latency average = 25.4083
	minimum = 6
	maximum = 196
Network latency average = 20.3448
	minimum = 6
	maximum = 155
Slowest packet = 949043
Flit latency average = 21.9123
	minimum = 6
	maximum = 151
Slowest flit = 4141505
Fragmentation average = 0
	minimum = 0
	maximum = 0
Injected packet rate average = 0.0378062
	minimum = 0.0335613 (at node 6)
	maximum = 0.0459252 (at node 26)
Accepted packet rate average = 0.0378062
	minimum = 0.0335613 (at node 6)
	maximum = 0.0459252 (at node 26)
Injected flit rate average = 0.107574
	minimum = 0.0370591 (at node 6)
	maximum = 0.212121 (at node 26)
Accepted flit rate average= 0.107574
	minimum = 0.0418909 (at node 25)
	maximum = 0.158276 (at node 8)
Injected packet length average = 2.84541
Accepted packet length average = 2.84541
Total in-flight flits = 0 (0 measured)
====== Overall Traffic Statistics ======
====== Traffic class 0 ======
Packet latency average = 26.222 (2 samples)
	minimum = 6 (2 samples)
	maximum = 189 (2 samples)
Network latency average = 20.9646 (2 samples)
	minimum = 6 (2 samples)
	maximum = 151 (2 samples)
Flit latency average = 22.7359 (2 samples)
	minimum = 6 (2 samples)
	maximum = 147 (2 samples)
Fragmentation average = 1.00478e-05 (2 samples)
	minimum = 0 (2 samples)
	maximum = 5.5 (2 samples)
Injected packet rate average = 0.0354693 (2 samples)
	minimum = 0.0314783 (2 samples)
	maximum = 0.0426176 (2 samples)
Accepted packet rate average = 0.0354693 (2 samples)
	minimum = 0.0314783 (2 samples)
	maximum = 0.0426176 (2 samples)
Injected flit rate average = 0.100331 (2 samples)
	minimum = 0.03511 (2 samples)
	maximum = 0.194889 (2 samples)
Accepted flit rate average = 0.100331 (2 samples)
	minimum = 0.040028 (2 samples)
	maximum = 0.146755 (2 samples)
Injected packet size average = 2.82867 (2 samples)
Accepted packet size average = 2.82867 (2 samples)
Hops average = 1 (2 samples)
----------------------------END-of-Interconnect-DETAILS-------------------------


gpgpu_simulation_time = 0 days, 1 hrs, 52 min, 50 sec (6770 sec)
gpgpu_simulation_rate = 80104 (inst/sec)
gpgpu_simulation_rate = 296 (cycle/sec)
GPGPU-Sim: synchronize waiting for inactive GPU simulation
GPGPU-Sim API: Stream Manager State
GPGPU-Sim: detected inactive GPU simulation thread
Time spent in different stages of GPU_CUDA KERNEL:
 0.000032000000 s,  0.000001133675 % : GPU: SET DEVICE / DRIVER INIT
 0.000002000000 s,  0.000000070855 % : GPU MEM: ALO
 1.774456977844 s,  0.062864273787 % : GPU MEM: COPY IN
2820.903076171875 s, 99.937072753906 % : GPU: KERNEL
 0.001744000008 s,  0.000061785264 % : GPU MEM: COPY OUT
 0.000001000000 s,  0.000000035427 % : GPU MEM: FRE
Total time:
2822.679443359375 s
> > > > > > > > > > 
