

        *** GPGPU-Sim Simulator Version 3.2.2  [build 17315] ***


GPGPU-Sim PTX: simulation mode 0 (can change with PTX_SIM_MODE_FUNC environment variable:
               1=functional simulation only, 0=detailed performance simulator)
GPGPU-Sim: Configuration options:

-network_mode                           1 # Interconnection network mode
-inter_config_file   config_fermi_islip.icnt # Interconnection network config file
-gpgpu_ptx_use_cuobjdump                    1 # Use cuobjdump to extract ptx and sass from binaries
-gpgpu_experimental_lib_support                    0 # Try to extract code from cuda libraries [Broken because of unknown cudaGetExportTable]
-gpgpu_ptx_convert_to_ptxplus                    0 # Convert SASS (native ISA) to ptxplus and run ptxplus
-gpgpu_ptx_force_max_capability                   20 # Force maximum compute capability
-gpgpu_ptx_inst_debug_to_file                    0 # Dump executed instructions' debug information to file
-gpgpu_ptx_inst_debug_file       inst_debug.txt # Executed instructions' debug output file
-gpgpu_ptx_inst_debug_thread_uid                    1 # Thread UID for executed instructions' debug output
-gpgpu_simd_model                       1 # 1 = post-dominator
-gpgpu_shader_core_pipeline              1536:32 # shader core pipeline config, i.e., {<nthread>:<warpsize>}
-gpgpu_tex_cache:l1  4:128:24,L:R:m:N,F:128:4,128:2 # per-shader L1 texture cache  (READ-ONLY) config  {<nsets>:<bsize>:<assoc>,<rep>:<wr>:<alloc>:<wr_alloc>,<mshr>:<N>:<merge>,<mq>:<rf>}
-gpgpu_const_cache:l1 64:64:2,L:R:f:N,A:2:32,4 # per-shader L1 constant memory cache  (READ-ONLY) config  {<nsets>:<bsize>:<assoc>,<rep>:<wr>:<alloc>:<wr_alloc>,<mshr>:<N>:<merge>,<mq>} 
-gpgpu_cache:il1     4:128:4,L:R:f:N,A:2:32,4 # shader L1 instruction cache config  {<nsets>:<bsize>:<assoc>,<rep>:<wr>:<alloc>:<wr_alloc>,<mshr>:<N>:<merge>,<mq>} 
-gpgpu_cache:dl1     32:128:6,R:L:m:N,A:32:8,8 # per-shader L1 data cache config  {<nsets>:<bsize>:<assoc>,<rep>:<wr>:<alloc>:<wr_alloc>,<mshr>:<N>:<merge>,<mq> | none}
-gpgpu_cache:dl1PrefL1                 none # per-shader L1 data cache config  {<nsets>:<bsize>:<assoc>,<rep>:<wr>:<alloc>:<wr_alloc>,<mshr>:<N>:<merge>,<mq> | none}
-gpgpu_cache:dl1PreShared                 none # per-shader L1 data cache config  {<nsets>:<bsize>:<assoc>,<rep>:<wr>:<alloc>:<wr_alloc>,<mshr>:<N>:<merge>,<mq> | none}
-gmem_skip_L1D                          0 # global memory access skip L1D cache (implements -Xptxas -dlcm=cg, default=no skip)
-gpgpu_perfect_mem                      0 # enable perfect memory mode (no cache miss)
-n_regfile_gating_group                    4 # group of lanes that should be read/written together)
-gpgpu_clock_gated_reg_file                    0 # enable clock gated reg file for power calculations
-gpgpu_clock_gated_lanes                    0 # enable clock gated lanes for power calculations
-gpgpu_shader_registers                32768 # Number of registers per shader core. Limits number of concurrent CTAs. (default 8192)
-gpgpu_shader_cta                       8 # Maximum number of concurrent CTAs in shader (default 8)
-gpgpu_n_clusters                      15 # number of processing clusters
-gpgpu_n_cores_per_cluster                    1 # number of simd cores per cluster
-gpgpu_n_cluster_ejection_buffer_size                    8 # number of packets in ejection buffer
-gpgpu_n_ldst_response_buffer_size                    2 # number of response packets in ld/st unit ejection buffer
-gpgpu_shmem_size                   16384 # Size of shared memory per shader core (default 16kB)
-gpgpu_shmem_size                   49152 # Size of shared memory per shader core (default 16kB)
-gpgpu_shmem_size_PrefL1                16384 # Size of shared memory per shader core (default 16kB)
-gpgpu_shmem_size_PrefShared                16384 # Size of shared memory per shader core (default 16kB)
-gpgpu_shmem_num_banks                   32 # Number of banks in the shared memory in each shader core (default 16)
-gpgpu_shmem_limited_broadcast                    0 # Limit shared memory to do one broadcast per cycle (default on)
-gpgpu_shmem_warp_parts                    1 # Number of portions a warp is divided into for shared memory bank conflict check 
-gpgpu_warpdistro_shader                   -1 # Specify which shader core to collect the warp size distribution from
-gpgpu_warp_issue_shader                    0 # Specify which shader core to collect the warp issue distribution from
-gpgpu_local_mem_map                    1 # Mapping from local memory space address to simulated GPU physical address space (default = enabled)
-gpgpu_num_reg_banks                   16 # Number of register banks (default = 8)
-gpgpu_reg_bank_use_warp_id                    0 # Use warp ID in mapping registers to banks (default = off)
-gpgpu_operand_collector_num_units_sp                    6 # number of collector units (default = 4)
-gpgpu_operand_collector_num_units_sfu                    8 # number of collector units (default = 4)
-gpgpu_operand_collector_num_units_mem                    2 # number of collector units (default = 2)
-gpgpu_operand_collector_num_units_gen                    0 # number of collector units (default = 0)
-gpgpu_operand_collector_num_in_ports_sp                    2 # number of collector unit in ports (default = 1)
-gpgpu_operand_collector_num_in_ports_sfu                    1 # number of collector unit in ports (default = 1)
-gpgpu_operand_collector_num_in_ports_mem                    1 # number of collector unit in ports (default = 1)
-gpgpu_operand_collector_num_in_ports_gen                    0 # number of collector unit in ports (default = 0)
-gpgpu_operand_collector_num_out_ports_sp                    2 # number of collector unit in ports (default = 1)
-gpgpu_operand_collector_num_out_ports_sfu                    1 # number of collector unit in ports (default = 1)
-gpgpu_operand_collector_num_out_ports_mem                    1 # number of collector unit in ports (default = 1)
-gpgpu_operand_collector_num_out_ports_gen                    0 # number of collector unit in ports (default = 0)
-gpgpu_coalesce_arch                   13 # Coalescing arch (default = 13, anything else is off for now)
-gpgpu_num_sched_per_core                    2 # Number of warp schedulers per core
-gpgpu_max_insn_issue_per_warp                    1 # Max number of instructions that can be issued per warp in one cycle by scheduler
-gpgpu_simt_core_sim_order                    1 # Select the simulation order of cores in a cluster (0=Fix, 1=Round-Robin)
-gpgpu_pipeline_widths        2,1,1,2,1,1,2 # Pipeline widths ID_OC_SP,ID_OC_SFU,ID_OC_MEM,OC_EX_SP,OC_EX_SFU,OC_EX_MEM,EX_WB
-gpgpu_num_sp_units                     2 # Number of SP units (default=1)
-gpgpu_num_sfu_units                    1 # Number of SF units (default=1)
-gpgpu_num_mem_units                    1 # Number if ldst units (default=1) WARNING: not hooked up to anything
-gpgpu_scheduler                      lrr # Scheduler configuration: < lrr | gto | two_level_active > If two_level_active:<num_active_warps>:<inner_prioritization>:<outer_prioritization>For complete list of prioritization values see shader.h enum scheduler_prioritization_typeDefault: gto
-gpgpu_dram_scheduler                    1 # 0 = fifo, 1 = FR-FCFS (defaul)
-gpgpu_dram_partition_queues              8:8:8:8 # i2$:$2d:d2$:$2i
-l2_ideal                               0 # Use a ideal L2 cache that always hit
-gpgpu_cache:dl2     64:128:8,L:B:m:W,A:32:4,4:0,32 # unified banked L2 data cache config  {<nsets>:<bsize>:<assoc>,<rep>:<wr>:<alloc>:<wr_alloc>,<mshr>:<N>:<merge>,<mq>}
-gpgpu_cache:dl2_texture_only                    0 # L2 cache used for texture only
-gpgpu_n_mem                            6 # number of memory modules (e.g. memory controllers) in gpu
-gpgpu_n_sub_partition_per_mchannel                    2 # number of memory subpartition in each memory module
-gpgpu_n_mem_per_ctrlr                    2 # number of memory chips per memory controller
-gpgpu_memlatency_stat                   14 # track and display latency statistics 0x2 enables MC, 0x4 enables queue logs
-gpgpu_frfcfs_dram_sched_queue_size                   16 # 0 = unlimited (default); # entries per chip
-gpgpu_dram_return_queue_size                  116 # 0 = unlimited (default); # entries per chip
-gpgpu_dram_buswidth                    4 # default = 4 bytes (8 bytes per cycle at DDR)
-gpgpu_dram_burst_length                    8 # Burst length of each DRAM request (default = 4 data bus cycle)
-dram_data_command_freq_ratio                    4 # Frequency ratio between DRAM data bus and command bus (default = 2 times, i.e. DDR)
-gpgpu_dram_timing_opt nbk=16:CCD=2:RRD=6:RCD=12:RAS=28:RP=12:RC=40: CL=12:WL=4:CDLR=5:WR=12:nbkgrp=4:CCDL=3:RTPL=2 # DRAM timing parameters = {nbk:tCCD:tRRD:tRCD:tRAS:tRP:tRC:CL:WL:tCDLR:tWR:nbkgrp:tCCDL:tRTPL}
-rop_latency                          120 # ROP queue latency (default 85)
-dram_latency                         100 # DRAM latency (default 30)
-gpgpu_mem_addr_mapping dramid@8;00000000.00000000.00000000.00000000.0000RRRR.RRRRRRRR.BBBCCCCB.CCSSSSSS # mapping memory address to dram model {dramid@<start bit>;<memory address map>}
-gpgpu_mem_addr_test                    0 # run sweep test to check address mapping for aliased address
-gpgpu_mem_address_mask                    1 # 0 = old addressing mask, 1 = new addressing mask, 2 = new add. mask + flipped bank sel and chip sel bits
-gpuwattch_xml_file  gpuwattch_gtx480.xml # GPUWattch XML file
-power_simulation_enabled                    1 # Turn on power simulator (1=On, 0=Off)
-power_per_cycle_dump                    0 # Dump detailed power output each cycle
-power_trace_enabled                    0 # produce a file for the power trace (1=On, 0=Off)
-power_trace_zlevel                     6 # Compression level of the power trace output log (0=no comp, 9=highest)
-steady_power_levels_enabled                    0 # produce a file for the steady power levels (1=On, 0=Off)
-steady_state_definition                  8:4 # allowed deviation:number of samples
-gpgpu_max_cycle                        0 # terminates gpu simulation early (0 = no limit)
-gpgpu_max_insn                         0 # terminates gpu simulation early (0 = no limit)
-gpgpu_max_cta                          0 # terminates gpu simulation early (0 = no limit)
-gpgpu_runtime_stat                   500 # display runtime statistics such as dram utilization {<freq>:<flag>}
-liveness_message_freq                    1 # Minimum number of seconds between simulation liveness messages (0 = always print)
-gpgpu_flush_l1_cache                    0 # Flush L1 cache at the end of each kernel call
-gpgpu_flush_l2_cache                    0 # Flush L2 cache at the end of each kernel call
-gpgpu_deadlock_detect                    1 # Stop the simulation at deadlock (1=on (default), 0=off)
-gpgpu_ptx_instruction_classification                    0 # if enabled will classify ptx instruction types per kernel (Max 255 kernels now)
-gpgpu_ptx_sim_mode                     0 # Select between Performance (default) or Functional simulation (1)
-gpgpu_clock_domains 700.0:700.0:700.0:924.0 # Clock Domain Frequencies in MhZ {<Core Clock>:<ICNT Clock>:<L2 Clock>:<DRAM Clock>}
-gpgpu_max_concurrent_kernel                    8 # maximum kernels that can run concurrently on GPU
-gpgpu_cflog_interval                    0 # Interval between each snapshot in control flow logger
-visualizer_enabled                     0 # Turn on visualizer output (1=On, 0=Off)
-visualizer_outputfile                 NULL # Specifies the output log file for visualizer
-visualizer_zlevel                      6 # Compression level of the visualizer output log (0=no comp, 9=highest)
-trace_enabled                          0 # Turn on traces
-trace_components                    none # comma seperated list of traces to enable. Complete list found in trace_streams.tup. Default none
-trace_sampling_core                    0 # The core which is printed using CORE_DPRINTF. Default 0
-trace_sampling_memory_partition                   -1 # The memory partition which is printed using MEMPART_DPRINTF. Default -1 (i.e. all)
-enable_ptx_file_line_stats                    1 # Turn on PTX source line statistic profiling. (1 = On)
-ptx_line_stats_filename gpgpu_inst_stats.txt # Output file for PTX source line statistics.
-save_embedded_ptx                      0 # saves ptx files embedded in binary as <n>.ptx
-keep                                   0 # keep intermediate files created by GPGPU-Sim when interfacing with external programs
-gpgpu_ptx_save_converted_ptxplus                    0 # Saved converted ptxplus to a file
-ptx_opcode_latency_int         4,13,4,5,145 # Opcode latencies for integers <ADD,MAX,MUL,MAD,DIV>Default 1,1,19,25,145
-ptx_opcode_latency_fp          4,13,4,5,39 # Opcode latencies for single precision floating points <ADD,MAX,MUL,MAD,DIV>Default 1,1,1,1,30
-ptx_opcode_latency_dp         8,19,8,8,330 # Opcode latencies for double precision floating points <ADD,MAX,MUL,MAD,DIV>Default 8,8,8,8,335
-ptx_opcode_initiation_int            1,2,2,1,8 # Opcode initiation intervals for integers <ADD,MAX,MUL,MAD,DIV>Default 1,1,4,4,32
-ptx_opcode_initiation_fp            1,2,1,1,4 # Opcode initiation intervals for single precision floating points <ADD,MAX,MUL,MAD,DIV>Default 1,1,1,1,5
-ptx_opcode_initiation_dp         8,16,8,8,130 # Opcode initiation intervals for double precision floating points <ADD,MAX,MUL,MAD,DIV>Default 8,8,8,8,130
DRAM Timing Options:
nbk                                    16 # number of banks
CCD                                     2 # column to column delay
RRD                                     6 # minimal delay between activation of rows in different banks
RCD                                    12 # row to column delay
RAS                                    28 # time needed to activate row
RP                                     12 # time needed to precharge (deactivate) row
RC                                     40 # row cycle time
CDLR                                    5 # switching from write to read (changes tWTR)
WR                                     12 # last data-in to row precharge
CL                                     12 # CAS latency
WL                                      4 # Write latency
nbkgrp                                  4 # number of bank groups
CCDL                                    3 # column to column delay between accesses to different bank groups
RTPL                                    2 # read to precharge delay between accesses to different bank groups
Total number of memory sub partition = 12
addr_dec_mask[CHIP]  = 0000000000000000 	high:64 low:0
addr_dec_mask[BK]    = 000000000000e100 	high:16 low:8
addr_dec_mask[ROW]   = 000000000fff0000 	high:28 low:16
addr_dec_mask[COL]   = 0000000000001eff 	high:13 low:0
addr_dec_mask[BURST] = 000000000000003f 	high:6 low:0
sub_partition_id_mask = 0000000000000100
GPGPU-Sim uArch: clock freqs: 700000000.000000:700000000.000000:700000000.000000:924000000.000000
GPGPU-Sim uArch: clock periods: 0.00000000142857142857:0.00000000142857142857:0.00000000142857142857:0.00000000108225108225
*** Initializing Memory Statistics ***
GPGPU-Sim uArch: interconnect node map (shaderID+MemID to icntID)
GPGPU-Sim uArch: Memory nodes ID start from index: 15
GPGPU-Sim uArch:    0   1   2   3   4
GPGPU-Sim uArch:    5   6   7   8   9
GPGPU-Sim uArch:   10  11  12  13  14
GPGPU-Sim uArch:   15  16  17  18  19
GPGPU-Sim uArch:   20  21  22  23  24
GPGPU-Sim uArch:   25  26
GPGPU-Sim uArch: interconnect node reverse map (icntID to shaderID+MemID)
GPGPU-Sim uArch: Memory nodes start from ID: 15
GPGPU-Sim uArch:    0   1   2   3   4
GPGPU-Sim uArch:    5   6   7   8   9
GPGPU-Sim uArch:   10  11  12  13  14
GPGPU-Sim uArch:   15  16  17  18  19
GPGPU-Sim uArch:   20  21  22  23  24
GPGPU-Sim uArch:   25  26
5dfc00447550946b86c573f0833154d9  /home/xlxie/workdir_Aug1st_2014/bm/rodinia_2.4_sim_1.0/cuda/b+tree.tmp.7/b+tree.out
GPGPU-Sim uArch: performance model initialization complete.
GPGPU-Sim PTX: __cudaRegisterFatBinary, fat_cubin_handle = 1, filename=./kernel/kernel_gpu_cuda_wrapper.cu
self exe links to: /home/xlxie/workdir_Aug1st_2014/bm/rodinia_2.4_sim_1.0/cuda/b+tree.tmp.7/b+tree.out
Running md5sum using "md5sum /home/xlxie/workdir_Aug1st_2014/bm/rodinia_2.4_sim_1.0/cuda/b+tree.tmp.7/b+tree.out "
Running cuobjdump using "$CUDA_INSTALL_PATH/bin/cuobjdump -ptx -elf -sass /home/xlxie/workdir_Aug1st_2014/bm/rodinia_2.4_sim_1.0/cuda/b+tree.tmp.7/b+tree.out > _cuobjdump_complete_output_BKoUMm"
Parsing file _cuobjdump_complete_output_BKoUMm
######### cuobjdump parser ########
## Adding new section PTX
Adding ptx filename: _cuobjdump_1.ptx
Adding arch: sm_20
Adding identifier: ./kernel/kernel_gpu_cuda_wrapper.cu
## Adding new section PTX
Adding ptx filename: _cuobjdump_2.ptx
Adding arch: sm_20
Adding identifier: ./kernel/kernel_gpu_cuda_wrapper_2.cu
## Adding new section PTX
Adding ptx filename: _cuobjdump_3.ptx
Adding arch: sm_20
Adding identifier: ./util/cuda/cuda.cu
Done parsing!!!
GPGPU-Sim PTX: __cudaRegisterFunction findK : hostFun 0x0x405e20, fat_cubin_handle = 1
GPGPU-Sim PTX: instruction assembly for function 'findK'...   done.
GPGPU-Sim PTX: finding reconvergence points for 'findK'...
GPGPU-Sim PTX: Finding dominators for 'findK'...
GPGPU-Sim PTX: Finding immediate dominators for 'findK'...
GPGPU-Sim PTX: Finding postdominators for 'findK'...
GPGPU-Sim PTX: Finding immediate postdominators for 'findK'...
GPGPU-Sim PTX: pre-decoding instructions for 'findK'...
GPGPU-Sim PTX: reconvergence points for findK...
GPGPU-Sim PTX:  1 (potential) branch divergence @  PC=0x038 (_1.ptx:74) @%p1 bra $Lt_0_7682;
GPGPU-Sim PTX:    immediate post dominator      @  PC=0x1e8 (_1.ptx:141) ld.global.u64 %rd32, [%rd12+0];
GPGPU-Sim PTX:  2 (potential) branch divergence @  PC=0x0d0 (_1.ptx:96) @%p3 bra $Lt_0_7938;
GPGPU-Sim PTX:    immediate post dominator      @  PC=0x150 (_1.ptx:116) bar.sync 0;
GPGPU-Sim PTX:  3 (potential) branch divergence @  PC=0x0e8 (_1.ptx:99) @%p4 bra $Lt_0_7938;
GPGPU-Sim PTX:    immediate post dominator      @  PC=0x150 (_1.ptx:116) bar.sync 0;
GPGPU-Sim PTX:  4 (potential) branch divergence @  PC=0x140 (_1.ptx:110) @%p5 bra $Lt_0_7938;
GPGPU-Sim PTX:    immediate post dominator      @  PC=0x150 (_1.ptx:116) bar.sync 0;
GPGPU-Sim PTX:  5 (potential) branch divergence @  PC=0x158 (_1.ptx:117) @!%p2 bra $Lt_0_6402;
GPGPU-Sim PTX:    immediate post dominator      @  PC=0x180 (_1.ptx:125) bar.sync 0;
GPGPU-Sim PTX:  6 (potential) branch divergence @  PC=0x198 (_1.ptx:129) @%p6 bra $Lt_0_5634;
GPGPU-Sim PTX:    immediate post dominator      @  PC=0x1a0 (_1.ptx:130) bra.uni $Lt_0_5122;
GPGPU-Sim PTX:  7 (potential) branch divergence @  PC=0x1a0 (_1.ptx:130) bra.uni $Lt_0_5122;
GPGPU-Sim PTX:    immediate post dominator      @  PC=0x1e8 (_1.ptx:141) ld.global.u64 %rd32, [%rd12+0];
GPGPU-Sim PTX:  8 (potential) branch divergence @  PC=0x220 (_1.ptx:148) @%p7 bra $Lt_0_7170;
GPGPU-Sim PTX:    immediate post dominator      @  PC=0x270 (_1.ptx:161) exit;
GPGPU-Sim PTX: ... end of reconvergence points for findK
GPGPU-Sim PTX: ... done pre-decoding instructions for 'findK'.
GPGPU-Sim PTX: finished parsing EMBEDDED .ptx file _1.ptx
Adding _cuobjdump_1.ptx with cubin handle 1
GPGPU-Sim PTX: extracting embedded .ptx to temporary file "_ptx_F350aw"
Running: cat _ptx_F350aw | sed 's/.version 1.5/.version 1.4/' | sed 's/, texmode_independent//' | sed 's/\(\.extern \.const\[1\] .b8 \w\+\)\[\]/\1\[1\]/' | sed 's/const\[.\]/const\[0\]/g' > _ptx2_gb48yF
GPGPU-Sim PTX: generating ptxinfo using "$CUDA_INSTALL_PATH/bin/ptxas --gpu-name=sm_20 -v _ptx2_gb48yF --output-file  /dev/null 2> _ptx_F350awinfo"
GPGPU-Sim PTX: Kernel 'findK' : regs=18, lmem=0, smem=0, cmem=96
GPGPU-Sim PTX: removing ptxinfo using "rm -f _ptx_F350aw _ptx2_gb48yF _ptx_F350awinfo"
GPGPU-Sim PTX: loading globals with explicit initializers... 
GPGPU-Sim PTX: finished loading globals (0 bytes total).
GPGPU-Sim PTX: loading constants with explicit initializers...  done.
GPGPU-Sim PTX: __cudaRegisterFatBinary, fat_cubin_handle = 2, filename=./kernel/kernel_gpu_cuda_wrapper_2.cu
GPGPU-Sim PTX: __cudaRegisterFunction findRangeK : hostFun 0x0x406530, fat_cubin_handle = 2
GPGPU-Sim PTX: instruction assembly for function 'findRangeK'...   done.
GPGPU-Sim PTX: finding reconvergence points for 'findRangeK'...
GPGPU-Sim PTX: Finding dominators for 'findRangeK'...
GPGPU-Sim PTX: Finding immediate dominators for 'findRangeK'...
GPGPU-Sim PTX: Finding postdominators for 'findRangeK'...
GPGPU-Sim PTX: Finding immediate postdominators for 'findRangeK'...
GPGPU-Sim PTX: pre-decoding instructions for 'findRangeK'...
GPGPU-Sim PTX: reconvergence points for findRangeK...
GPGPU-Sim PTX:  1 (potential) branch divergence @  PC=0x2c0 (_2.ptx:79) @%p1 bra $Lt_0_11778;
GPGPU-Sim PTX:    immediate post dominator      @  PC=0x528 (_2.ptx:174) ld.global.u64 %rd43, [%rd15+0];
GPGPU-Sim PTX:  2 (potential) branch divergence @  PC=0x368 (_2.ptx:103) @%p3 bra $Lt_0_12034;
GPGPU-Sim PTX:    immediate post dominator      @  PC=0x3c8 (_2.ptx:119) ld.global.s32 %r8, [%rd14+0];
GPGPU-Sim PTX:  3 (potential) branch divergence @  PC=0x380 (_2.ptx:106) @%p4 bra $Lt_0_12034;
GPGPU-Sim PTX:    immediate post dominator      @  PC=0x3c8 (_2.ptx:119) ld.global.s32 %r8, [%rd14+0];
GPGPU-Sim PTX:  4 (potential) branch divergence @  PC=0x3a8 (_2.ptx:111) @%p5 bra $Lt_0_12034;
GPGPU-Sim PTX:    immediate post dominator      @  PC=0x3c8 (_2.ptx:119) ld.global.s32 %r8, [%rd14+0];
GPGPU-Sim PTX:  5 (potential) branch divergence @  PC=0x400 (_2.ptx:126) @%p6 bra $Lt_0_12546;
GPGPU-Sim PTX:    immediate post dominator      @  PC=0x460 (_2.ptx:142) bar.sync 0;
GPGPU-Sim PTX:  6 (potential) branch divergence @  PC=0x418 (_2.ptx:129) @%p7 bra $Lt_0_12546;
GPGPU-Sim PTX:    immediate post dominator      @  PC=0x460 (_2.ptx:142) bar.sync 0;
GPGPU-Sim PTX:  7 (potential) branch divergence @  PC=0x440 (_2.ptx:134) @%p8 bra $Lt_0_12546;
GPGPU-Sim PTX:    immediate post dominator      @  PC=0x460 (_2.ptx:142) bar.sync 0;
GPGPU-Sim PTX:  8 (potential) branch divergence @  PC=0x468 (_2.ptx:143) @!%p2 bra $Lt_0_9986;
GPGPU-Sim PTX:    immediate post dominator      @  PC=0x4b0 (_2.ptx:156) bar.sync 0;
GPGPU-Sim PTX:  9 (potential) branch divergence @  PC=0x4c8 (_2.ptx:160) @%p9 bra $Lt_0_8706;
GPGPU-Sim PTX:    immediate post dominator      @  PC=0x4d0 (_2.ptx:161) bra.uni $Lt_0_8194;
GPGPU-Sim PTX: 10 (potential) branch divergence @  PC=0x4d0 (_2.ptx:161) bra.uni $Lt_0_8194;
GPGPU-Sim PTX:    immediate post dominator      @  PC=0x528 (_2.ptx:174) ld.global.u64 %rd43, [%rd15+0];
GPGPU-Sim PTX: 11 (potential) branch divergence @  PC=0x560 (_2.ptx:181) @%p10 bra $Lt_0_10754;
GPGPU-Sim PTX:    immediate post dominator      @  PC=0x588 (_2.ptx:189) bar.sync 0;
GPGPU-Sim PTX: 12 (potential) branch divergence @  PC=0x5c8 (_2.ptx:197) @%p11 bra $Lt_0_11266;
GPGPU-Sim PTX:    immediate post dominator      @  PC=0x618 (_2.ptx:210) exit;
GPGPU-Sim PTX: ... end of reconvergence points for findRangeK
GPGPU-Sim PTX: ... done pre-decoding instructions for 'findRangeK'.
GPGPU-Sim PTX: finished parsing EMBEDDED .ptx file _2.ptx
Adding _cuobjdump_2.ptx with cubin handle 2
GPGPU-Sim PTX: extracting embedded .ptx to temporary file "_ptx_6RSUiP"
Running: cat _ptx_6RSUiP | sed 's/.version 1.5/.version 1.4/' | sed 's/, texmode_independent//' | sed 's/\(\.extern \.const\[1\] .b8 \w\+\)\[\]/\1\[1\]/' | sed 's/const\[.\]/const\[0\]/g' > _ptx2_Fd7H2Y
GPGPU-Sim PTX: generating ptxinfo using "$CUDA_INSTALL_PATH/bin/ptxas --gpu-name=sm_20 -v _ptx2_Fd7H2Y --output-file  /dev/null 2> _ptx_6RSUiPinfo"
GPGPU-Sim PTX: Kernel 'findRangeK' : regs=23, lmem=0, smem=0, cmem=120
GPGPU-Sim PTX: removing ptxinfo using "rm -f _ptx_6RSUiP _ptx2_Fd7H2Y _ptx_6RSUiPinfo"
GPGPU-Sim PTX: loading globals with explicit initializers... 
GPGPU-Sim PTX: finished loading globals (0 bytes total).
GPGPU-Sim PTX: loading constants with explicit initializers...  done.
GPGPU-Sim PTX: __cudaRegisterFatBinary, fat_cubin_handle = 3, filename=./util/cuda/cuda.cu
Selecting device 0
Input File: ../../data/b+tree/mil.txt 
Command File: ../../data/b+tree/command.txt 
Command Buffer: 
j 6000 3000
k 10000


Getting input from file ../../data/b+tree/mil.txt...
Transforming data to a GPU suitable structure...
Tree transformation took 0.232347
Waiting for command
> 
******command: j count=6000, rSize=6000 
knodes_elem=3953, knodes_unit_mem=4084, knodes_mem=16144052
GPGPU-Sim: synchronize waiting for inactive GPU simulation
GPGPU-Sim API: Stream Manager State
GPGPU-Sim: detected inactive GPU simulation thread
# of blocks = 6000, # of threads/block = 508 (ensure that device can handle)

GPGPU-Sim PTX: cudaLaunch for 0x0x406530 (mode=performance simulation) on stream 0
GPGPU-Sim PTX: pushing kernel 'findRangeK' to stream 0, gridDim= (6000,1,1) blockDim = (508,1,1) 
kernel 'findRangeK' transfer to GPU hardware scheduler
GPGPU-Sim uArch: Shader 1 bind to kernel 1 'findRangeK'
GPGPU-Sim uArch: CTA/core = 2, limited by: regs
GPGPU-Sim uArch: core:  1, cta: 0 initialized @(1,0)
GPGPU-Sim uArch: Shader 2 bind to kernel 1 'findRangeK'
GPGPU-Sim uArch: core:  2, cta: 0 initialized @(1,0)
GPGPU-Sim uArch: Shader 3 bind to kernel 1 'findRangeK'
GPGPU-Sim uArch: core:  3, cta: 0 initialized @(1,0)
GPGPU-Sim uArch: Shader 4 bind to kernel 1 'findRangeK'
GPGPU-Sim uArch: core:  4, cta: 0 initialized @(1,0)
GPGPU-Sim uArch: Shader 5 bind to kernel 1 'findRangeK'
GPGPU-Sim uArch: core:  5, cta: 0 initialized @(1,0)
GPGPU-Sim uArch: Shader 6 bind to kernel 1 'findRangeK'
GPGPU-Sim uArch: core:  6, cta: 0 initialized @(1,0)
GPGPU-Sim uArch: Shader 7 bind to kernel 1 'findRangeK'
GPGPU-Sim uArch: core:  7, cta: 0 initialized @(1,0)
GPGPU-Sim uArch: Shader 8 bind to kernel 1 'findRangeK'
GPGPU-Sim uArch: core:  8, cta: 0 initialized @(1,0)
GPGPU-Sim uArch: Shader 9 bind to kernel 1 'findRangeK'
GPGPU-Sim uArch: core:  9, cta: 0 initialized @(1,0)
GPGPU-Sim uArch: Shader 10 bind to kernel 1 'findRangeK'
GPGPU-Sim uArch: core: 10, cta: 0 initialized @(1,0)
GPGPU-Sim uArch: Shader 11 bind to kernel 1 'findRangeK'
GPGPU-Sim uArch: core: 11, cta: 0 initialized @(1,0)
GPGPU-Sim uArch: Shader 12 bind to kernel 1 'findRangeK'
GPGPU-Sim uArch: core: 12, cta: 0 initialized @(1,0)
GPGPU-Sim uArch: Shader 13 bind to kernel 1 'findRangeK'
GPGPU-Sim uArch: core: 13, cta: 0 initialized @(1,0)
GPGPU-Sim uArch: Shader 14 bind to kernel 1 'findRangeK'
GPGPU-Sim uArch: core: 14, cta: 0 initialized @(1,0)
GPGPU-Sim uArch: Shader 0 bind to kernel 1 'findRangeK'
GPGPU-Sim uArch: core:  0, cta: 0 initialized @(1,0)
GPGPU-Sim uArch: core:  1, cta: 1 initialized @(2,0)
GPGPU-Sim uArch: core:  2, cta: 1 initialized @(2,0)
GPGPU-Sim uArch: core:  3, cta: 1 initialized @(2,0)
GPGPU-Sim uArch: core:  4, cta: 1 initialized @(2,0)
GPGPU-Sim uArch: core:  5, cta: 1 initialized @(2,0)
GPGPU-Sim uArch: core:  6, cta: 1 initialized @(2,0)
GPGPU-Sim uArch: core:  7, cta: 1 initialized @(2,0)
GPGPU-Sim uArch: core:  8, cta: 1 initialized @(2,0)
GPGPU-Sim uArch: core:  9, cta: 1 initialized @(2,0)
GPGPU-Sim uArch: core: 10, cta: 1 initialized @(2,0)
GPGPU-Sim uArch: core: 11, cta: 1 initialized @(2,0)
GPGPU-Sim uArch: core: 12, cta: 1 initialized @(2,0)
GPGPU-Sim uArch: core: 13, cta: 1 initialized @(2,0)
GPGPU-Sim uArch: core: 14, cta: 1 initialized @(2,0)
GPGPU-Sim uArch: core:  0, cta: 1 initialized @(2,0)
GPGPU-Sim uArch: cycles simulated: 500  inst.: 0 (ipc= 0.0) sim_rate=0 (inst/sec) elapsed = 0:0:00:05 / Fri Aug 15 13:39:33 2014
GPGPU-Sim PTX: 100000 instructions simulated : ctaid=(19,0,0) tid=(91,0,0)
GPGPU-Sim PTX: 200000 instructions simulated : ctaid=(8,0,0) tid=(7,0,0)
GPGPU-Sim uArch: cycles simulated: 1000  inst.: 255476 (ipc=255.5) sim_rate=42579 (inst/sec) elapsed = 0:0:00:06 / Fri Aug 15 13:39:34 2014
GPGPU-Sim PTX: 300000 instructions simulated : ctaid=(8,0,0) tid=(411,0,0)
GPGPU-Sim PTX: 400000 instructions simulated : ctaid=(22,0,0) tid=(63,0,0)
GPGPU-Sim uArch: cycles simulated: 2000  inst.: 426874 (ipc=213.4) sim_rate=60982 (inst/sec) elapsed = 0:0:00:07 / Fri Aug 15 13:39:35 2014
GPGPU-Sim PTX: 500000 instructions simulated : ctaid=(29,0,0) tid=(352,0,0)
GPGPU-Sim uArch: cycles simulated: 2500  inst.: 529708 (ipc=211.9) sim_rate=66213 (inst/sec) elapsed = 0:0:00:08 / Fri Aug 15 13:39:36 2014
GPGPU-Sim PTX: 600000 instructions simulated : ctaid=(6,0,0) tid=(59,0,0)
GPGPU-Sim PTX: 700000 instructions simulated : ctaid=(26,0,0) tid=(265,0,0)
GPGPU-Sim uArch: cycles simulated: 3500  inst.: 686318 (ipc=196.1) sim_rate=76257 (inst/sec) elapsed = 0:0:00:09 / Fri Aug 15 13:39:37 2014
GPGPU-Sim PTX: 800000 instructions simulated : ctaid=(22,0,0) tid=(263,0,0)
GPGPU-Sim uArch: cycles simulated: 4500  inst.: 854936 (ipc=190.0) sim_rate=85493 (inst/sec) elapsed = 0:0:00:10 / Fri Aug 15 13:39:38 2014
GPGPU-Sim PTX: 900000 instructions simulated : ctaid=(1,0,0) tid=(285,0,0)
GPGPU-Sim uArch: cycles simulated: 5000  inst.: 965418 (ipc=193.1) sim_rate=87765 (inst/sec) elapsed = 0:0:00:11 / Fri Aug 15 13:39:39 2014
GPGPU-Sim PTX: 1000000 instructions simulated : ctaid=(11,0,0) tid=(429,0,0)
GPGPU-Sim PTX: 1100000 instructions simulated : ctaid=(29,0,0) tid=(319,0,0)
GPGPU-Sim uArch: cycles simulated: 6000  inst.: 1104679 (ipc=184.1) sim_rate=92056 (inst/sec) elapsed = 0:0:00:12 / Fri Aug 15 13:39:40 2014
GPGPU-Sim PTX: 1200000 instructions simulated : ctaid=(11,0,0) tid=(26,0,0)
GPGPU-Sim uArch: cycles simulated: 7000  inst.: 1233865 (ipc=176.3) sim_rate=94912 (inst/sec) elapsed = 0:0:00:13 / Fri Aug 15 13:39:41 2014
GPGPU-Sim PTX: 1300000 instructions simulated : ctaid=(0,0,0) tid=(44,0,0)
GPGPU-Sim uArch: cycles simulated: 7500  inst.: 1283694 (ipc=171.2) sim_rate=91692 (inst/sec) elapsed = 0:0:00:14 / Fri Aug 15 13:39:42 2014
GPGPU-Sim uArch: Shader 1 finished CTA #0 (7541,0), 1 CTAs running
GPGPU-Sim uArch: core:  1, cta: 0 initialized @(7542,0)
GPGPU-Sim uArch: Shader 6 finished CTA #0 (7568,0), 1 CTAs running
GPGPU-Sim uArch: core:  6, cta: 0 initialized @(7569,0)
GPGPU-Sim uArch: Shader 8 finished CTA #0 (7592,0), 1 CTAs running
GPGPU-Sim uArch: core:  8, cta: 0 initialized @(7593,0)
GPGPU-Sim uArch: Shader 8 finished CTA #1 (7617,0), 1 CTAs running
GPGPU-Sim uArch: core:  8, cta: 1 initialized @(7618,0)
GPGPU-Sim uArch: Shader 0 finished CTA #0 (7651,0), 1 CTAs running
GPGPU-Sim uArch: core:  0, cta: 0 initialized @(7652,0)
GPGPU-Sim uArch: Shader 12 finished CTA #0 (7658,0), 1 CTAs running
GPGPU-Sim uArch: core: 12, cta: 0 initialized @(7659,0)
GPGPU-Sim uArch: Shader 10 finished CTA #0 (7670,0), 1 CTAs running
GPGPU-Sim uArch: core: 10, cta: 0 initialized @(7671,0)
GPGPU-Sim uArch: Shader 3 finished CTA #0 (7681,0), 1 CTAs running
GPGPU-Sim uArch: core:  3, cta: 0 initialized @(7682,0)
GPGPU-Sim uArch: Shader 9 finished CTA #1 (7684,0), 1 CTAs running
GPGPU-Sim uArch: core:  9, cta: 1 initialized @(7685,0)
GPGPU-Sim uArch: Shader 7 finished CTA #0 (7693,0), 1 CTAs running
GPGPU-Sim uArch: core:  7, cta: 0 initialized @(7694,0)
GPGPU-Sim uArch: Shader 4 finished CTA #1 (7709,0), 1 CTAs running
GPGPU-Sim uArch: core:  4, cta: 1 initialized @(7710,0)
GPGPU-Sim uArch: Shader 12 finished CTA #1 (7715,0), 1 CTAs running
GPGPU-Sim uArch: core: 12, cta: 1 initialized @(7716,0)
GPGPU-Sim uArch: Shader 2 finished CTA #1 (7723,0), 1 CTAs running
GPGPU-Sim uArch: core:  2, cta: 1 initialized @(7724,0)
GPGPU-Sim uArch: Shader 10 finished CTA #1 (7753,0), 1 CTAs running
GPGPU-Sim uArch: core: 10, cta: 1 initialized @(7754,0)
GPGPU-Sim uArch: Shader 0 finished CTA #1 (7759,0), 1 CTAs running
GPGPU-Sim uArch: core:  0, cta: 1 initialized @(7760,0)
GPGPU-Sim uArch: Shader 9 finished CTA #0 (7760,0), 1 CTAs running
GPGPU-Sim uArch: core:  9, cta: 0 initialized @(7761,0)
GPGPU-Sim uArch: Shader 3 finished CTA #1 (7762,0), 1 CTAs running
GPGPU-Sim uArch: core:  3, cta: 1 initialized @(7763,0)
GPGPU-Sim uArch: Shader 4 finished CTA #0 (7768,0), 1 CTAs running
GPGPU-Sim uArch: core:  4, cta: 0 initialized @(7769,0)
GPGPU-Sim PTX: 1400000 instructions simulated : ctaid=(46,0,0) tid=(265,0,0)
GPGPU-Sim uArch: Shader 2 finished CTA #0 (7796,0), 1 CTAs running
GPGPU-Sim uArch: core:  2, cta: 0 initialized @(7797,0)
GPGPU-Sim uArch: Shader 14 finished CTA #0 (7797,0), 1 CTAs running
GPGPU-Sim uArch: core: 14, cta: 0 initialized @(7798,0)
GPGPU-Sim uArch: Shader 1 finished CTA #1 (7803,0), 1 CTAs running
GPGPU-Sim uArch: core:  1, cta: 1 initialized @(7804,0)
GPGPU-Sim uArch: Shader 6 finished CTA #1 (7836,0), 1 CTAs running
GPGPU-Sim uArch: core:  6, cta: 1 initialized @(7837,0)
GPGPU-Sim uArch: Shader 5 finished CTA #1 (7878,0), 1 CTAs running
GPGPU-Sim uArch: core:  5, cta: 1 initialized @(7879,0)
GPGPU-Sim uArch: Shader 7 finished CTA #1 (7901,0), 1 CTAs running
GPGPU-Sim uArch: core:  7, cta: 1 initialized @(7902,0)
GPGPU-Sim uArch: Shader 11 finished CTA #1 (7905,0), 1 CTAs running
GPGPU-Sim uArch: core: 11, cta: 1 initialized @(7906,0)
GPGPU-Sim uArch: Shader 14 finished CTA #1 (7912,0), 1 CTAs running
GPGPU-Sim uArch: core: 14, cta: 1 initialized @(7913,0)
GPGPU-Sim uArch: Shader 5 finished CTA #0 (7920,0), 1 CTAs running
GPGPU-Sim uArch: core:  5, cta: 0 initialized @(7921,0)
GPGPU-Sim PTX: 1500000 instructions simulated : ctaid=(31,0,0) tid=(358,0,0)
GPGPU-Sim uArch: Shader 13 finished CTA #1 (7982,0), 1 CTAs running
GPGPU-Sim uArch: core: 13, cta: 1 initialized @(7983,0)
GPGPU-Sim uArch: Shader 13 finished CTA #0 (7999,0), 1 CTAs running
GPGPU-Sim uArch: core: 13, cta: 0 initialized @(8000,0)
GPGPU-Sim uArch: cycles simulated: 8000  inst.: 1497710 (ipc=187.2) sim_rate=99847 (inst/sec) elapsed = 0:0:00:15 / Fri Aug 15 13:39:43 2014
GPGPU-Sim PTX: 1600000 instructions simulated : ctaid=(56,0,0) tid=(419,0,0)
GPGPU-Sim uArch: Shader 11 finished CTA #0 (8097,0), 1 CTAs running
GPGPU-Sim uArch: core: 11, cta: 0 initialized @(8098,0)
GPGPU-Sim PTX: 1700000 instructions simulated : ctaid=(42,0,0) tid=(276,0,0)
GPGPU-Sim PTX: 1800000 instructions simulated : ctaid=(42,0,0) tid=(122,0,0)
GPGPU-Sim uArch: cycles simulated: 8500  inst.: 1737239 (ipc=204.4) sim_rate=108577 (inst/sec) elapsed = 0:0:00:16 / Fri Aug 15 13:39:44 2014
GPGPU-Sim PTX: 1900000 instructions simulated : ctaid=(55,0,0) tid=(368,0,0)
GPGPU-Sim uArch: cycles simulated: 9000  inst.: 1914769 (ipc=212.8) sim_rate=112633 (inst/sec) elapsed = 0:0:00:17 / Fri Aug 15 13:39:45 2014
GPGPU-Sim PTX: 2000000 instructions simulated : ctaid=(33,0,0) tid=(343,0,0)
GPGPU-Sim uArch: cycles simulated: 9500  inst.: 2007491 (ipc=211.3) sim_rate=111527 (inst/sec) elapsed = 0:0:00:18 / Fri Aug 15 13:39:46 2014
GPGPU-Sim PTX: 2100000 instructions simulated : ctaid=(56,0,0) tid=(243,0,0)
GPGPU-Sim uArch: cycles simulated: 10000  inst.: 2100333 (ipc=210.0) sim_rate=110543 (inst/sec) elapsed = 0:0:00:19 / Fri Aug 15 13:39:47 2014
GPGPU-Sim PTX: 2200000 instructions simulated : ctaid=(39,0,0) tid=(110,0,0)
GPGPU-Sim PTX: 2300000 instructions simulated : ctaid=(34,0,0) tid=(489,0,0)
GPGPU-Sim uArch: cycles simulated: 11000  inst.: 2316654 (ipc=210.6) sim_rate=115832 (inst/sec) elapsed = 0:0:00:20 / Fri Aug 15 13:39:48 2014
GPGPU-Sim PTX: 2400000 instructions simulated : ctaid=(58,0,0) tid=(59,0,0)
GPGPU-Sim uArch: cycles simulated: 11500  inst.: 2399703 (ipc=208.7) sim_rate=114271 (inst/sec) elapsed = 0:0:00:21 / Fri Aug 15 13:39:49 2014
GPGPU-Sim PTX: 2500000 instructions simulated : ctaid=(58,0,0) tid=(450,0,0)
GPGPU-Sim PTX: 2600000 instructions simulated : ctaid=(57,0,0) tid=(337,0,0)
GPGPU-Sim uArch: cycles simulated: 12500  inst.: 2536831 (ipc=202.9) sim_rate=115310 (inst/sec) elapsed = 0:0:00:22 / Fri Aug 15 13:39:50 2014
GPGPU-Sim uArch: Shader 8 finished CTA #1 (12960,0), 1 CTAs running
GPGPU-Sim uArch: core:  8, cta: 1 initialized @(12961,0)
GPGPU-Sim uArch: Shader 10 finished CTA #0 (12975,0), 1 CTAs running
GPGPU-Sim uArch: core: 10, cta: 0 initialized @(12976,0)
GPGPU-Sim uArch: Shader 9 finished CTA #0 (12988,0), 1 CTAs running
GPGPU-Sim uArch: core:  9, cta: 0 initialized @(12989,0)
GPGPU-Sim uArch: cycles simulated: 13000  inst.: 2590783 (ipc=199.3) sim_rate=112642 (inst/sec) elapsed = 0:0:00:23 / Fri Aug 15 13:39:51 2014
GPGPU-Sim uArch: Shader 14 finished CTA #0 (13000,0), 1 CTAs running
GPGPU-Sim uArch: core: 14, cta: 0 initialized @(13001,0)
GPGPU-Sim uArch: Shader 6 finished CTA #0 (13012,0), 1 CTAs running
GPGPU-Sim uArch: core:  6, cta: 0 initialized @(13013,0)
GPGPU-Sim uArch: Shader 10 finished CTA #1 (13018,0), 1 CTAs running
GPGPU-Sim uArch: core: 10, cta: 1 initialized @(13019,0)
GPGPU-Sim uArch: Shader 8 finished CTA #0 (13019,0), 1 CTAs running
GPGPU-Sim uArch: core:  8, cta: 0 initialized @(13020,0)
GPGPU-Sim uArch: Shader 1 finished CTA #0 (13021,0), 1 CTAs running
GPGPU-Sim uArch: core:  1, cta: 0 initialized @(13022,0)
GPGPU-Sim uArch: Shader 9 finished CTA #1 (13053,0), 1 CTAs running
GPGPU-Sim uArch: core:  9, cta: 1 initialized @(13054,0)
GPGPU-Sim uArch: Shader 3 finished CTA #0 (13059,0), 1 CTAs running
GPGPU-Sim uArch: core:  3, cta: 0 initialized @(13060,0)
GPGPU-Sim uArch: Shader 2 finished CTA #1 (13069,0), 1 CTAs running
GPGPU-Sim uArch: core:  2, cta: 1 initialized @(13070,0)
GPGPU-Sim uArch: Shader 0 finished CTA #0 (13091,0), 1 CTAs running
GPGPU-Sim uArch: core:  0, cta: 0 initialized @(13092,0)
GPGPU-Sim PTX: 2700000 instructions simulated : ctaid=(66,0,0) tid=(188,0,0)
GPGPU-Sim uArch: Shader 7 finished CTA #0 (13131,0), 1 CTAs running
GPGPU-Sim uArch: core:  7, cta: 0 initialized @(13132,0)
GPGPU-Sim uArch: Shader 7 finished CTA #1 (13148,0), 1 CTAs running
GPGPU-Sim uArch: core:  7, cta: 1 initialized @(13149,0)
GPGPU-Sim uArch: Shader 11 finished CTA #1 (13170,0), 1 CTAs running
GPGPU-Sim uArch: core: 11, cta: 1 initialized @(13171,0)
GPGPU-Sim uArch: Shader 0 finished CTA #1 (13172,0), 1 CTAs running
GPGPU-Sim uArch: core:  0, cta: 1 initialized @(13173,0)
GPGPU-Sim uArch: Shader 11 finished CTA #0 (13187,0), 1 CTAs running
GPGPU-Sim uArch: core: 11, cta: 0 initialized @(13188,0)
GPGPU-Sim uArch: Shader 14 finished CTA #1 (13194,0), 1 CTAs running
GPGPU-Sim uArch: core: 14, cta: 1 initialized @(13195,0)
GPGPU-Sim uArch: Shader 12 finished CTA #0 (13196,0), 1 CTAs running
GPGPU-Sim uArch: core: 12, cta: 0 initialized @(13197,0)
GPGPU-Sim uArch: Shader 12 finished CTA #1 (13213,0), 1 CTAs running
GPGPU-Sim uArch: core: 12, cta: 1 initialized @(13214,0)
GPGPU-Sim PTX: 2800000 instructions simulated : ctaid=(75,0,0) tid=(242,0,0)
GPGPU-Sim uArch: Shader 13 finished CTA #1 (13269,0), 1 CTAs running
GPGPU-Sim uArch: core: 13, cta: 1 initialized @(13270,0)
GPGPU-Sim uArch: Shader 5 finished CTA #1 (13272,0), 1 CTAs running
GPGPU-Sim uArch: core:  5, cta: 1 initialized @(13273,0)
GPGPU-Sim uArch: Shader 3 finished CTA #1 (13275,0), 1 CTAs running
GPGPU-Sim uArch: core:  3, cta: 1 initialized @(13276,0)
GPGPU-Sim uArch: Shader 13 finished CTA #0 (13286,0), 1 CTAs running
GPGPU-Sim uArch: core: 13, cta: 0 initialized @(13287,0)
GPGPU-Sim uArch: Shader 4 finished CTA #0 (13383,0), 1 CTAs running
GPGPU-Sim uArch: core:  4, cta: 0 initialized @(13384,0)
GPGPU-Sim uArch: Shader 4 finished CTA #1 (13408,0), 1 CTAs running
GPGPU-Sim uArch: core:  4, cta: 1 initialized @(13409,0)
GPGPU-Sim uArch: Shader 5 finished CTA #0 (13414,0), 1 CTAs running
GPGPU-Sim uArch: core:  5, cta: 0 initialized @(13415,0)
GPGPU-Sim PTX: 2900000 instructions simulated : ctaid=(72,0,0) tid=(459,0,0)
GPGPU-Sim uArch: cycles simulated: 13500  inst.: 2836604 (ipc=210.1) sim_rate=118191 (inst/sec) elapsed = 0:0:00:24 / Fri Aug 15 13:39:52 2014
GPGPU-Sim PTX: 3000000 instructions simulated : ctaid=(82,0,0) tid=(91,0,0)
GPGPU-Sim uArch: Shader 6 finished CTA #1 (13660,0), 1 CTAs running
GPGPU-Sim uArch: core:  6, cta: 1 initialized @(13661,0)
GPGPU-Sim uArch: Shader 2 finished CTA #0 (13663,0), 1 CTAs running
GPGPU-Sim uArch: core:  2, cta: 0 initialized @(13664,0)
GPGPU-Sim uArch: Shader 1 finished CTA #1 (13810,0), 1 CTAs running
GPGPU-Sim uArch: core:  1, cta: 1 initialized @(13811,0)
GPGPU-Sim PTX: 3100000 instructions simulated : ctaid=(80,0,0) tid=(406,0,0)
GPGPU-Sim uArch: cycles simulated: 14000  inst.: 3088145 (ipc=220.6) sim_rate=118774 (inst/sec) elapsed = 0:0:00:26 / Fri Aug 15 13:39:54 2014
GPGPU-Sim PTX: 3200000 instructions simulated : ctaid=(75,0,0) tid=(373,0,0)
GPGPU-Sim PTX: 3300000 instructions simulated : ctaid=(77,0,0) tid=(60,0,0)
GPGPU-Sim PTX: 3400000 instructions simulated : ctaid=(87,0,0) tid=(67,0,0)
GPGPU-Sim uArch: cycles simulated: 15000  inst.: 3321393 (ipc=221.4) sim_rate=123014 (inst/sec) elapsed = 0:0:00:27 / Fri Aug 15 13:39:55 2014
GPGPU-Sim PTX: 3500000 instructions simulated : ctaid=(61,0,0) tid=(130,0,0)
GPGPU-Sim uArch: cycles simulated: 15500  inst.: 3449654 (ipc=222.6) sim_rate=123201 (inst/sec) elapsed = 0:0:00:28 / Fri Aug 15 13:39:56 2014
GPGPU-Sim PTX: 3600000 instructions simulated : ctaid=(70,0,0) tid=(166,0,0)
GPGPU-Sim uArch: cycles simulated: 16000  inst.: 3554497 (ipc=222.2) sim_rate=122568 (inst/sec) elapsed = 0:0:00:29 / Fri Aug 15 13:39:57 2014
GPGPU-Sim PTX: 3700000 instructions simulated : ctaid=(79,0,0) tid=(359,0,0)
GPGPU-Sim PTX: 3800000 instructions simulated : ctaid=(84,0,0) tid=(232,0,0)
GPGPU-Sim uArch: cycles simulated: 17000  inst.: 3709875 (ipc=218.2) sim_rate=123662 (inst/sec) elapsed = 0:0:00:30 / Fri Aug 15 13:39:58 2014
GPGPU-Sim PTX: 3900000 instructions simulated : ctaid=(81,0,0) tid=(369,0,0)
GPGPU-Sim uArch: cycles simulated: 17500  inst.: 3786943 (ipc=216.4) sim_rate=122159 (inst/sec) elapsed = 0:0:00:31 / Fri Aug 15 13:39:59 2014
GPGPU-Sim uArch: cycles simulated: 18000  inst.: 3847907 (ipc=213.8) sim_rate=120247 (inst/sec) elapsed = 0:0:00:32 / Fri Aug 15 13:40:00 2014
GPGPU-Sim uArch: Shader 14 finished CTA #0 (18141,0), 1 CTAs running
GPGPU-Sim uArch: core: 14, cta: 0 initialized @(18142,0)
GPGPU-Sim PTX: 4000000 instructions simulated : ctaid=(89,0,0) tid=(323,0,0)
GPGPU-Sim uArch: Shader 8 finished CTA #1 (18376,0), 1 CTAs running
GPGPU-Sim uArch: core:  8, cta: 1 initialized @(18377,0)
GPGPU-Sim uArch: Shader 4 finished CTA #0 (18380,0), 1 CTAs running
GPGPU-Sim uArch: core:  4, cta: 0 initialized @(18381,0)
GPGPU-Sim uArch: Shader 11 finished CTA #1 (18397,0), 1 CTAs running
GPGPU-Sim uArch: core: 11, cta: 1 initialized @(18398,0)
GPGPU-Sim uArch: Shader 5 finished CTA #0 (18399,0), 1 CTAs running
GPGPU-Sim uArch: core:  5, cta: 0 initialized @(18400,0)
GPGPU-Sim uArch: Shader 8 finished CTA #0 (18401,0), 1 CTAs running
GPGPU-Sim uArch: core:  8, cta: 0 initialized @(18402,0)
GPGPU-Sim uArch: Shader 7 finished CTA #0 (18405,0), 1 CTAs running
GPGPU-Sim uArch: core:  7, cta: 0 initialized @(18406,0)
GPGPU-Sim uArch: Shader 14 finished CTA #1 (18407,0), 1 CTAs running
GPGPU-Sim uArch: core: 14, cta: 1 initialized @(18408,0)
GPGPU-Sim uArch: Shader 11 finished CTA #0 (18412,0), 1 CTAs running
GPGPU-Sim uArch: core: 11, cta: 0 initialized @(18413,0)
GPGPU-Sim uArch: Shader 5 finished CTA #1 (18415,0), 1 CTAs running
GPGPU-Sim uArch: core:  5, cta: 1 initialized @(18416,0)
GPGPU-Sim uArch: Shader 7 finished CTA #1 (18417,0), 1 CTAs running
GPGPU-Sim uArch: core:  7, cta: 1 initialized @(18418,0)
GPGPU-Sim uArch: Shader 0 finished CTA #1 (18479,0), 1 CTAs running
GPGPU-Sim uArch: core:  0, cta: 1 initialized @(18480,0)
GPGPU-Sim uArch: Shader 12 finished CTA #1 (18547,0), 1 CTAs running
GPGPU-Sim uArch: core: 12, cta: 1 initialized @(18548,0)
GPGPU-Sim uArch: Shader 4 finished CTA #1 (18549,0), 1 CTAs running
GPGPU-Sim uArch: core:  4, cta: 1 initialized @(18550,0)
GPGPU-Sim uArch: Shader 0 finished CTA #0 (18555,0), 1 CTAs running
GPGPU-Sim uArch: core:  0, cta: 0 initialized @(18556,0)
GPGPU-Sim uArch: Shader 12 finished CTA #0 (18572,0), 1 CTAs running
GPGPU-Sim uArch: core: 12, cta: 0 initialized @(18573,0)
GPGPU-Sim uArch: Shader 10 finished CTA #1 (18587,0), 1 CTAs running
GPGPU-Sim uArch: core: 10, cta: 1 initialized @(18588,0)
GPGPU-Sim PTX: 4100000 instructions simulated : ctaid=(94,0,0) tid=(59,0,0)
GPGPU-Sim uArch: Shader 10 finished CTA #0 (18629,0), 1 CTAs running
GPGPU-Sim uArch: core: 10, cta: 0 initialized @(18630,0)
GPGPU-Sim uArch: Shader 9 finished CTA #1 (18692,0), 1 CTAs running
GPGPU-Sim uArch: core:  9, cta: 1 initialized @(18693,0)
GPGPU-Sim uArch: Shader 6 finished CTA #1 (18746,0), 1 CTAs running
GPGPU-Sim uArch: core:  6, cta: 1 initialized @(18747,0)
GPGPU-Sim uArch: Shader 6 finished CTA #0 (18771,0), 1 CTAs running
GPGPU-Sim uArch: core:  6, cta: 0 initialized @(18772,0)
GPGPU-Sim uArch: Shader 3 finished CTA #1 (18778,0), 1 CTAs running
GPGPU-Sim uArch: core:  3, cta: 1 initialized @(18779,0)
GPGPU-Sim uArch: Shader 1 finished CTA #0 (18783,0), 1 CTAs running
GPGPU-Sim uArch: core:  1, cta: 0 initialized @(18784,0)
GPGPU-Sim uArch: Shader 13 finished CTA #1 (18794,0), 1 CTAs running
GPGPU-Sim uArch: core: 13, cta: 1 initialized @(18795,0)
GPGPU-Sim PTX: 4200000 instructions simulated : ctaid=(111,0,0) tid=(479,0,0)
GPGPU-Sim uArch: Shader 13 finished CTA #0 (18811,0), 1 CTAs running
GPGPU-Sim uArch: core: 13, cta: 0 initialized @(18812,0)
GPGPU-Sim uArch: Shader 9 finished CTA #0 (18822,0), 1 CTAs running
GPGPU-Sim uArch: core:  9, cta: 0 initialized @(18823,0)
GPGPU-Sim uArch: Shader 2 finished CTA #1 (18948,0), 1 CTAs running
GPGPU-Sim uArch: core:  2, cta: 1 initialized @(18949,0)
GPGPU-Sim PTX: 4300000 instructions simulated : ctaid=(110,0,0) tid=(169,0,0)
GPGPU-Sim uArch: cycles simulated: 19000  inst.: 4167748 (ipc=219.4) sim_rate=122580 (inst/sec) elapsed = 0:0:00:34 / Fri Aug 15 13:40:02 2014
GPGPU-Sim uArch: Shader 3 finished CTA #0 (19101,0), 1 CTAs running
GPGPU-Sim uArch: core:  3, cta: 0 initialized @(19102,0)
GPGPU-Sim uArch: Shader 2 finished CTA #0 (19103,0), 1 CTAs running
GPGPU-Sim uArch: core:  2, cta: 0 initialized @(19104,0)
GPGPU-Sim uArch: Shader 1 finished CTA #1 (19123,0), 1 CTAs running
GPGPU-Sim uArch: core:  1, cta: 1 initialized @(19124,0)
GPGPU-Sim PTX: 4400000 instructions simulated : ctaid=(99,0,0) tid=(79,0,0)
GPGPU-Sim PTX: 4500000 instructions simulated : ctaid=(117,0,0) tid=(237,0,0)
GPGPU-Sim uArch: cycles simulated: 19500  inst.: 4378527 (ipc=224.5) sim_rate=121625 (inst/sec) elapsed = 0:0:00:36 / Fri Aug 15 13:40:04 2014
GPGPU-Sim PTX: 4600000 instructions simulated : ctaid=(108,0,0) tid=(45,0,0)
GPGPU-Sim PTX: 4700000 instructions simulated : ctaid=(102,0,0) tid=(242,0,0)
GPGPU-Sim uArch: cycles simulated: 20500  inst.: 4638128 (ipc=226.3) sim_rate=125354 (inst/sec) elapsed = 0:0:00:37 / Fri Aug 15 13:40:05 2014
GPGPU-Sim PTX: 4800000 instructions simulated : ctaid=(100,0,0) tid=(325,0,0)
GPGPU-Sim PTX: 4900000 instructions simulated : ctaid=(112,0,0) tid=(65,0,0)
GPGPU-Sim uArch: cycles simulated: 21000  inst.: 4777956 (ipc=227.5) sim_rate=125735 (inst/sec) elapsed = 0:0:00:38 / Fri Aug 15 13:40:06 2014
GPGPU-Sim PTX: 5000000 instructions simulated : ctaid=(100,0,0) tid=(306,0,0)
GPGPU-Sim uArch: cycles simulated: 21500  inst.: 4886363 (ipc=227.3) sim_rate=125291 (inst/sec) elapsed = 0:0:00:39 / Fri Aug 15 13:40:07 2014
GPGPU-Sim PTX: 5100000 instructions simulated : ctaid=(119,0,0) tid=(259,0,0)
GPGPU-Sim uArch: cycles simulated: 22500  inst.: 5028043 (ipc=223.5) sim_rate=125701 (inst/sec) elapsed = 0:0:00:40 / Fri Aug 15 13:40:08 2014
GPGPU-Sim PTX: 5200000 instructions simulated : ctaid=(91,0,0) tid=(442,0,0)
GPGPU-Sim uArch: cycles simulated: 23000  inst.: 5102860 (ipc=221.9) sim_rate=124460 (inst/sec) elapsed = 0:0:00:41 / Fri Aug 15 13:40:09 2014
GPGPU-Sim uArch: Shader 14 finished CTA #0 (23212,0), 1 CTAs running
GPGPU-Sim uArch: core: 14, cta: 0 initialized @(23213,0)
GPGPU-Sim PTX: 5300000 instructions simulated : ctaid=(114,0,0) tid=(267,0,0)
GPGPU-Sim uArch: Shader 0 finished CTA #0 (23480,0), 1 CTAs running
GPGPU-Sim uArch: core:  0, cta: 0 initialized @(23481,0)
GPGPU-Sim uArch: Shader 8 finished CTA #0 (23484,0), 1 CTAs running
GPGPU-Sim uArch: core:  8, cta: 0 initialized @(23485,0)
GPGPU-Sim uArch: Shader 5 finished CTA #0 (23489,0), 1 CTAs running
GPGPU-Sim uArch: core:  5, cta: 0 initialized @(23490,0)
GPGPU-Sim uArch: Shader 0 finished CTA #1 (23497,0), 1 CTAs running
GPGPU-Sim uArch: core:  0, cta: 1 initialized @(23498,0)
GPGPU-Sim uArch: cycles simulated: 23500  inst.: 5171013 (ipc=220.0) sim_rate=123119 (inst/sec) elapsed = 0:0:00:42 / Fri Aug 15 13:40:10 2014
GPGPU-Sim uArch: Shader 8 finished CTA #1 (23681,0), 1 CTAs running
GPGPU-Sim uArch: core:  8, cta: 1 initialized @(23682,0)
GPGPU-Sim uArch: Shader 11 finished CTA #1 (23729,0), 1 CTAs running
GPGPU-Sim uArch: core: 11, cta: 1 initialized @(23730,0)
GPGPU-Sim uArch: Shader 12 finished CTA #1 (23761,0), 1 CTAs running
GPGPU-Sim uArch: core: 12, cta: 1 initialized @(23762,0)
GPGPU-Sim PTX: 5400000 instructions simulated : ctaid=(116,0,0) tid=(18,0,0)
GPGPU-Sim uArch: Shader 13 finished CTA #0 (23863,0), 1 CTAs running
GPGPU-Sim uArch: core: 13, cta: 0 initialized @(23864,0)
GPGPU-Sim uArch: Shader 4 finished CTA #0 (23865,0), 1 CTAs running
GPGPU-Sim uArch: core:  4, cta: 0 initialized @(23866,0)
GPGPU-Sim uArch: Shader 6 finished CTA #1 (23867,0), 1 CTAs running
GPGPU-Sim uArch: core:  6, cta: 1 initialized @(23868,0)
GPGPU-Sim uArch: Shader 1 finished CTA #1 (23877,0), 1 CTAs running
GPGPU-Sim uArch: core:  1, cta: 1 initialized @(23878,0)
GPGPU-Sim uArch: Shader 6 finished CTA #0 (23884,0), 1 CTAs running
GPGPU-Sim uArch: core:  6, cta: 0 initialized @(23885,0)
GPGPU-Sim uArch: Shader 12 finished CTA #0 (23892,0), 1 CTAs running
GPGPU-Sim uArch: core: 12, cta: 0 initialized @(23893,0)
GPGPU-Sim uArch: Shader 1 finished CTA #0 (23894,0), 1 CTAs running
GPGPU-Sim uArch: core:  1, cta: 0 initialized @(23895,0)
GPGPU-Sim uArch: Shader 4 finished CTA #1 (23900,0), 1 CTAs running
GPGPU-Sim uArch: core:  4, cta: 1 initialized @(23901,0)
GPGPU-Sim uArch: Shader 11 finished CTA #0 (23919,0), 1 CTAs running
GPGPU-Sim uArch: core: 11, cta: 0 initialized @(23920,0)
GPGPU-Sim uArch: cycles simulated: 24000  inst.: 5307790 (ipc=221.2) sim_rate=123436 (inst/sec) elapsed = 0:0:00:43 / Fri Aug 15 13:40:11 2014
GPGPU-Sim uArch: Shader 13 finished CTA #1 (24016,0), 1 CTAs running
GPGPU-Sim uArch: core: 13, cta: 1 initialized @(24017,0)
GPGPU-Sim uArch: Shader 10 finished CTA #0 (24018,0), 1 CTAs running
GPGPU-Sim uArch: core: 10, cta: 0 initialized @(24019,0)
GPGPU-Sim uArch: Shader 14 finished CTA #1 (24041,0), 1 CTAs running
GPGPU-Sim uArch: core: 14, cta: 1 initialized @(24042,0)
GPGPU-Sim PTX: 5500000 instructions simulated : ctaid=(136,0,0) tid=(152,0,0)
GPGPU-Sim uArch: Shader 10 finished CTA #1 (24053,0), 1 CTAs running
GPGPU-Sim uArch: core: 10, cta: 1 initialized @(24054,0)
GPGPU-Sim uArch: Shader 5 finished CTA #1 (24061,0), 1 CTAs running
GPGPU-Sim uArch: core:  5, cta: 1 initialized @(24062,0)
GPGPU-Sim uArch: Shader 2 finished CTA #0 (24090,0), 1 CTAs running
GPGPU-Sim uArch: core:  2, cta: 0 initialized @(24091,0)
GPGPU-Sim uArch: Shader 7 finished CTA #1 (24126,0), 1 CTAs running
GPGPU-Sim uArch: core:  7, cta: 1 initialized @(24127,0)
GPGPU-Sim uArch: Shader 7 finished CTA #0 (24184,0), 1 CTAs running
GPGPU-Sim uArch: core:  7, cta: 0 initialized @(24185,0)
GPGPU-Sim PTX: 5600000 instructions simulated : ctaid=(142,0,0) tid=(315,0,0)
GPGPU-Sim uArch: Shader 2 finished CTA #1 (24328,0), 1 CTAs running
GPGPU-Sim uArch: core:  2, cta: 1 initialized @(24329,0)
GPGPU-Sim PTX: 5700000 instructions simulated : ctaid=(132,0,0) tid=(16,0,0)
GPGPU-Sim uArch: cycles simulated: 24500  inst.: 5548781 (ipc=226.5) sim_rate=123306 (inst/sec) elapsed = 0:0:00:45 / Fri Aug 15 13:40:13 2014
GPGPU-Sim uArch: Shader 9 finished CTA #0 (24635,0), 1 CTAs running
GPGPU-Sim uArch: core:  9, cta: 0 initialized @(24636,0)
GPGPU-Sim uArch: Shader 3 finished CTA #0 (24698,0), 1 CTAs running
GPGPU-Sim uArch: core:  3, cta: 0 initialized @(24699,0)
GPGPU-Sim PTX: 5800000 instructions simulated : ctaid=(146,0,0) tid=(286,0,0)
GPGPU-Sim uArch: Shader 3 finished CTA #1 (24780,0), 1 CTAs running
GPGPU-Sim uArch: core:  3, cta: 1 initialized @(24781,0)
GPGPU-Sim uArch: Shader 9 finished CTA #1 (24874,0), 1 CTAs running
GPGPU-Sim uArch: core:  9, cta: 1 initialized @(24875,0)
GPGPU-Sim PTX: 5900000 instructions simulated : ctaid=(133,0,0) tid=(362,0,0)
GPGPU-Sim uArch: cycles simulated: 25000  inst.: 5730860 (ipc=229.2) sim_rate=124583 (inst/sec) elapsed = 0:0:00:46 / Fri Aug 15 13:40:14 2014
GPGPU-Sim PTX: 6000000 instructions simulated : ctaid=(133,0,0) tid=(192,0,0)
GPGPU-Sim uArch: cycles simulated: 25500  inst.: 5852825 (ipc=229.5) sim_rate=124528 (inst/sec) elapsed = 0:0:00:47 / Fri Aug 15 13:40:15 2014
GPGPU-Sim PTX: 6100000 instructions simulated : ctaid=(124,0,0) tid=(224,0,0)
GPGPU-Sim uArch: cycles simulated: 26000  inst.: 5970203 (ipc=229.6) sim_rate=124379 (inst/sec) elapsed = 0:0:00:48 / Fri Aug 15 13:40:16 2014
GPGPU-Sim PTX: 6200000 instructions simulated : ctaid=(139,0,0) tid=(38,0,0)
GPGPU-Sim uArch: cycles simulated: 26500  inst.: 6088714 (ipc=229.8) sim_rate=124259 (inst/sec) elapsed = 0:0:00:49 / Fri Aug 15 13:40:17 2014
GPGPU-Sim PTX: 6300000 instructions simulated : ctaid=(139,0,0) tid=(160,0,0)
GPGPU-Sim PTX: 6400000 instructions simulated : ctaid=(129,0,0) tid=(409,0,0)
GPGPU-Sim uArch: cycles simulated: 27500  inst.: 6269776 (ipc=228.0) sim_rate=125395 (inst/sec) elapsed = 0:0:00:50 / Fri Aug 15 13:40:18 2014
GPGPU-Sim PTX: 6500000 instructions simulated : ctaid=(131,0,0) tid=(59,0,0)
GPGPU-Sim uArch: cycles simulated: 28000  inst.: 6337027 (ipc=226.3) sim_rate=124255 (inst/sec) elapsed = 0:0:00:51 / Fri Aug 15 13:40:19 2014
GPGPU-Sim PTX: 6600000 instructions simulated : ctaid=(134,0,0) tid=(254,0,0)
GPGPU-Sim uArch: Shader 8 finished CTA #0 (28739,0), 1 CTAs running
GPGPU-Sim uArch: core:  8, cta: 0 initialized @(28740,0)
GPGPU-Sim uArch: Shader 8 finished CTA #1 (28775,0), 1 CTAs running
GPGPU-Sim uArch: core:  8, cta: 1 initialized @(28776,0)
GPGPU-Sim uArch: Shader 0 finished CTA #1 (28910,0), 1 CTAs running
GPGPU-Sim uArch: core:  0, cta: 1 initialized @(28911,0)
GPGPU-Sim uArch: Shader 14 finished CTA #0 (28931,0), 1 CTAs running
GPGPU-Sim uArch: core: 14, cta: 0 initialized @(28932,0)
GPGPU-Sim uArch: Shader 0 finished CTA #0 (28936,0), 1 CTAs running
GPGPU-Sim uArch: core:  0, cta: 0 initialized @(28937,0)
GPGPU-Sim uArch: cycles simulated: 29000  inst.: 6477378 (ipc=223.4) sim_rate=124564 (inst/sec) elapsed = 0:0:00:52 / Fri Aug 15 13:40:20 2014
GPGPU-Sim uArch: Shader 5 finished CTA #1 (29034,0), 1 CTAs running
GPGPU-Sim uArch: core:  5, cta: 1 initialized @(29035,0)
GPGPU-Sim PTX: 6700000 instructions simulated : ctaid=(153,0,0) tid=(35,0,0)
GPGPU-Sim uArch: Shader 13 finished CTA #0 (29081,0), 1 CTAs running
GPGPU-Sim uArch: core: 13, cta: 0 initialized @(29082,0)
GPGPU-Sim uArch: Shader 11 finished CTA #1 (29119,0), 1 CTAs running
GPGPU-Sim uArch: core: 11, cta: 1 initialized @(29120,0)
GPGPU-Sim uArch: Shader 6 finished CTA #0 (29131,0), 1 CTAs running
GPGPU-Sim uArch: core:  6, cta: 0 initialized @(29132,0)
GPGPU-Sim uArch: Shader 10 finished CTA #1 (29137,0), 1 CTAs running
GPGPU-Sim uArch: core: 10, cta: 1 initialized @(29138,0)
GPGPU-Sim uArch: Shader 10 finished CTA #0 (29162,0), 1 CTAs running
GPGPU-Sim uArch: core: 10, cta: 0 initialized @(29163,0)
GPGPU-Sim uArch: Shader 5 finished CTA #0 (29175,0), 1 CTAs running
GPGPU-Sim uArch: core:  5, cta: 0 initialized @(29176,0)
GPGPU-Sim uArch: Shader 1 finished CTA #1 (29191,0), 1 CTAs running
GPGPU-Sim uArch: core:  1, cta: 1 initialized @(29192,0)
GPGPU-Sim uArch: Shader 6 finished CTA #1 (29197,0), 1 CTAs running
GPGPU-Sim uArch: core:  6, cta: 1 initialized @(29198,0)
GPGPU-Sim uArch: Shader 4 finished CTA #1 (29205,0), 1 CTAs running
GPGPU-Sim uArch: core:  4, cta: 1 initialized @(29206,0)
GPGPU-Sim uArch: Shader 14 finished CTA #1 (29299,0), 1 CTAs running
GPGPU-Sim uArch: core: 14, cta: 1 initialized @(29300,0)
GPGPU-Sim PTX: 6800000 instructions simulated : ctaid=(164,0,0) tid=(290,0,0)
GPGPU-Sim uArch: Shader 13 finished CTA #1 (29336,0), 1 CTAs running
GPGPU-Sim uArch: core: 13, cta: 1 initialized @(29337,0)
GPGPU-Sim uArch: Shader 1 finished CTA #0 (29375,0), 1 CTAs running
GPGPU-Sim uArch: core:  1, cta: 0 initialized @(29376,0)
GPGPU-Sim uArch: Shader 4 finished CTA #0 (29455,0), 1 CTAs running
GPGPU-Sim uArch: core:  4, cta: 0 initialized @(29456,0)
GPGPU-Sim uArch: cycles simulated: 29500  inst.: 6670801 (ipc=226.1) sim_rate=123533 (inst/sec) elapsed = 0:0:00:54 / Fri Aug 15 13:40:22 2014
GPGPU-Sim PTX: 6900000 instructions simulated : ctaid=(157,0,0) tid=(467,0,0)
GPGPU-Sim uArch: Shader 11 finished CTA #0 (29539,0), 1 CTAs running
GPGPU-Sim uArch: core: 11, cta: 0 initialized @(29540,0)
GPGPU-Sim uArch: Shader 7 finished CTA #1 (29775,0), 1 CTAs running
GPGPU-Sim uArch: core:  7, cta: 1 initialized @(29776,0)
GPGPU-Sim uArch: Shader 2 finished CTA #1 (29777,0), 1 CTAs running
GPGPU-Sim uArch: core:  2, cta: 1 initialized @(29778,0)
GPGPU-Sim uArch: Shader 3 finished CTA #0 (29808,0), 1 CTAs running
GPGPU-Sim uArch: core:  3, cta: 0 initialized @(29809,0)
GPGPU-Sim PTX: 7000000 instructions simulated : ctaid=(165,0,0) tid=(413,0,0)
GPGPU-Sim uArch: Shader 9 finished CTA #0 (29892,0), 1 CTAs running
GPGPU-Sim uArch: core:  9, cta: 0 initialized @(29893,0)
GPGPU-Sim uArch: Shader 2 finished CTA #0 (29915,0), 1 CTAs running
GPGPU-Sim uArch: core:  2, cta: 0 initialized @(29916,0)
GPGPU-Sim uArch: Shader 9 finished CTA #1 (29928,0), 1 CTAs running
GPGPU-Sim uArch: core:  9, cta: 1 initialized @(29929,0)
GPGPU-Sim uArch: cycles simulated: 30000  inst.: 6842097 (ipc=228.1) sim_rate=124401 (inst/sec) elapsed = 0:0:00:55 / Fri Aug 15 13:40:23 2014
GPGPU-Sim uArch: Shader 3 finished CTA #1 (30018,0), 1 CTAs running
GPGPU-Sim uArch: core:  3, cta: 1 initialized @(30019,0)
GPGPU-Sim uArch: Shader 12 finished CTA #1 (30071,0), 1 CTAs running
GPGPU-Sim uArch: core: 12, cta: 1 initialized @(30072,0)
GPGPU-Sim PTX: 7100000 instructions simulated : ctaid=(170,0,0) tid=(250,0,0)
GPGPU-Sim uArch: Shader 7 finished CTA #0 (30131,0), 1 CTAs running
GPGPU-Sim uArch: core:  7, cta: 0 initialized @(30132,0)
GPGPU-Sim uArch: Shader 12 finished CTA #0 (30217,0), 1 CTAs running
GPGPU-Sim uArch: core: 12, cta: 0 initialized @(30218,0)
GPGPU-Sim PTX: 7200000 instructions simulated : ctaid=(178,0,0) tid=(334,0,0)
GPGPU-Sim uArch: cycles simulated: 30500  inst.: 7038851 (ipc=230.8) sim_rate=123488 (inst/sec) elapsed = 0:0:00:57 / Fri Aug 15 13:40:25 2014
GPGPU-Sim PTX: 7300000 instructions simulated : ctaid=(172,0,0) tid=(150,0,0)
GPGPU-Sim PTX: 7400000 instructions simulated : ctaid=(167,0,0) tid=(190,0,0)
GPGPU-Sim uArch: cycles simulated: 31500  inst.: 7269896 (ipc=230.8) sim_rate=125343 (inst/sec) elapsed = 0:0:00:58 / Fri Aug 15 13:40:26 2014
GPGPU-Sim PTX: 7500000 instructions simulated : ctaid=(156,0,0) tid=(136,0,0)
GPGPU-Sim PTX: 7600000 instructions simulated : ctaid=(160,0,0) tid=(37,0,0)
GPGPU-Sim uArch: cycles simulated: 32000  inst.: 7401332 (ipc=231.3) sim_rate=125446 (inst/sec) elapsed = 0:0:00:59 / Fri Aug 15 13:40:27 2014
GPGPU-Sim PTX: 7700000 instructions simulated : ctaid=(156,0,0) tid=(126,0,0)
GPGPU-Sim uArch: cycles simulated: 32500  inst.: 7481616 (ipc=230.2) sim_rate=124693 (inst/sec) elapsed = 0:0:01:00 / Fri Aug 15 13:40:28 2014
GPGPU-Sim PTX: 7800000 instructions simulated : ctaid=(179,0,0) tid=(54,0,0)
GPGPU-Sim uArch: cycles simulated: 33000  inst.: 7567898 (ipc=229.3) sim_rate=124063 (inst/sec) elapsed = 0:0:01:01 / Fri Aug 15 13:40:29 2014
GPGPU-Sim uArch: cycles simulated: 33500  inst.: 7639267 (ipc=228.0) sim_rate=123213 (inst/sec) elapsed = 0:0:01:02 / Fri Aug 15 13:40:30 2014
GPGPU-Sim PTX: 7900000 instructions simulated : ctaid=(155,0,0) tid=(435,0,0)
GPGPU-Sim uArch: Shader 8 finished CTA #1 (34019,0), 1 CTAs running
GPGPU-Sim uArch: core:  8, cta: 1 initialized @(34020,0)
GPGPU-Sim uArch: Shader 8 finished CTA #0 (34036,0), 1 CTAs running
GPGPU-Sim uArch: core:  8, cta: 0 initialized @(34037,0)
GPGPU-Sim uArch: Shader 1 finished CTA #0 (34208,0), 1 CTAs running
GPGPU-Sim uArch: core:  1, cta: 0 initialized @(34209,0)
GPGPU-Sim PTX: 8000000 instructions simulated : ctaid=(182,0,0) tid=(204,0,0)
GPGPU-Sim uArch: Shader 0 finished CTA #1 (34352,0), 1 CTAs running
GPGPU-Sim uArch: core:  0, cta: 1 initialized @(34353,0)
GPGPU-Sim uArch: Shader 13 finished CTA #1 (34356,0), 1 CTAs running
GPGPU-Sim uArch: core: 13, cta: 1 initialized @(34357,0)
GPGPU-Sim uArch: Shader 4 finished CTA #1 (34358,0), 1 CTAs running
GPGPU-Sim uArch: core:  4, cta: 1 initialized @(34359,0)
GPGPU-Sim uArch: Shader 0 finished CTA #0 (34369,0), 1 CTAs running
GPGPU-Sim uArch: core:  0, cta: 0 initialized @(34370,0)
GPGPU-Sim uArch: Shader 4 finished CTA #0 (34375,0), 1 CTAs running
GPGPU-Sim uArch: core:  4, cta: 0 initialized @(34376,0)
GPGPU-Sim uArch: cycles simulated: 34500  inst.: 7809319 (ipc=226.4) sim_rate=123957 (inst/sec) elapsed = 0:0:01:03 / Fri Aug 15 13:40:31 2014
GPGPU-Sim uArch: Shader 1 finished CTA #1 (34502,0), 1 CTAs running
GPGPU-Sim uArch: core:  1, cta: 1 initialized @(34503,0)
GPGPU-Sim uArch: Shader 2 finished CTA #1 (34617,0), 1 CTAs running
GPGPU-Sim uArch: core:  2, cta: 1 initialized @(34618,0)
GPGPU-Sim uArch: Shader 2 finished CTA #0 (34659,0), 1 CTAs running
GPGPU-Sim uArch: core:  2, cta: 0 initialized @(34660,0)
GPGPU-Sim PTX: 8100000 instructions simulated : ctaid=(189,0,0) tid=(241,0,0)
GPGPU-Sim uArch: Shader 13 finished CTA #0 (34664,0), 1 CTAs running
GPGPU-Sim uArch: core: 13, cta: 0 initialized @(34665,0)
GPGPU-Sim uArch: Shader 14 finished CTA #0 (34673,0), 1 CTAs running
GPGPU-Sim uArch: core: 14, cta: 0 initialized @(34674,0)
GPGPU-Sim uArch: Shader 5 finished CTA #0 (34685,0), 1 CTAs running
GPGPU-Sim uArch: core:  5, cta: 0 initialized @(34686,0)
GPGPU-Sim uArch: Shader 14 finished CTA #1 (34729,0), 1 CTAs running
GPGPU-Sim uArch: core: 14, cta: 1 initialized @(34730,0)
GPGPU-Sim uArch: Shader 6 finished CTA #1 (34730,0), 1 CTAs running
GPGPU-Sim uArch: core:  6, cta: 1 initialized @(34731,0)
GPGPU-Sim uArch: Shader 11 finished CTA #1 (34743,0), 1 CTAs running
GPGPU-Sim uArch: core: 11, cta: 1 initialized @(34744,0)
GPGPU-Sim PTX: 8200000 instructions simulated : ctaid=(196,0,0) tid=(391,0,0)
GPGPU-Sim uArch: Shader 10 finished CTA #1 (34909,0), 1 CTAs running
GPGPU-Sim uArch: core: 10, cta: 1 initialized @(34910,0)
GPGPU-Sim uArch: Shader 11 finished CTA #0 (34912,0), 1 CTAs running
GPGPU-Sim uArch: core: 11, cta: 0 initialized @(34913,0)
GPGPU-Sim uArch: cycles simulated: 35000  inst.: 7996605 (ipc=228.5) sim_rate=123024 (inst/sec) elapsed = 0:0:01:05 / Fri Aug 15 13:40:33 2014
GPGPU-Sim uArch: Shader 10 finished CTA #0 (35091,0), 1 CTAs running
GPGPU-Sim uArch: core: 10, cta: 0 initialized @(35092,0)
GPGPU-Sim uArch: Shader 12 finished CTA #0 (35161,0), 1 CTAs running
GPGPU-Sim uArch: core: 12, cta: 0 initialized @(35162,0)
GPGPU-Sim PTX: 8300000 instructions simulated : ctaid=(187,0,0) tid=(464,0,0)
GPGPU-Sim uArch: Shader 9 finished CTA #0 (35262,0), 1 CTAs running
GPGPU-Sim uArch: core:  9, cta: 0 initialized @(35263,0)
GPGPU-Sim PTX: 8400000 instructions simulated : ctaid=(198,0,0) tid=(288,0,0)
GPGPU-Sim uArch: cycles simulated: 35500  inst.: 8154405 (ipc=229.7) sim_rate=123551 (inst/sec) elapsed = 0:0:01:06 / Fri Aug 15 13:40:34 2014
GPGPU-Sim uArch: Shader 5 finished CTA #1 (35518,0), 1 CTAs running
GPGPU-Sim uArch: core:  5, cta: 1 initialized @(35519,0)
GPGPU-Sim uArch: Shader 7 finished CTA #1 (35520,0), 1 CTAs running
GPGPU-Sim uArch: core:  7, cta: 1 initialized @(35521,0)
GPGPU-Sim uArch: Shader 9 finished CTA #1 (35528,0), 1 CTAs running
GPGPU-Sim uArch: core:  9, cta: 1 initialized @(35529,0)
GPGPU-Sim uArch: Shader 12 finished CTA #1 (35554,0), 1 CTAs running
GPGPU-Sim uArch: core: 12, cta: 1 initialized @(35555,0)
GPGPU-Sim uArch: Shader 6 finished CTA #0 (35562,0), 1 CTAs running
GPGPU-Sim uArch: core:  6, cta: 0 initialized @(35563,0)
GPGPU-Sim uArch: Shader 7 finished CTA #0 (35747,0), 1 CTAs running
GPGPU-Sim uArch: core:  7, cta: 0 initialized @(35748,0)
GPGPU-Sim PTX: 8500000 instructions simulated : ctaid=(191,0,0) tid=(471,0,0)
GPGPU-Sim uArch: Shader 3 finished CTA #1 (35944,0), 1 CTAs running
GPGPU-Sim uArch: core:  3, cta: 1 initialized @(35945,0)
GPGPU-Sim uArch: Shader 3 finished CTA #0 (35981,0), 1 CTAs running
GPGPU-Sim uArch: core:  3, cta: 0 initialized @(35982,0)
GPGPU-Sim uArch: cycles simulated: 36000  inst.: 8322910 (ipc=231.2) sim_rate=124222 (inst/sec) elapsed = 0:0:01:07 / Fri Aug 15 13:40:35 2014
GPGPU-Sim PTX: 8600000 instructions simulated : ctaid=(209,0,0) tid=(455,0,0)
GPGPU-Sim PTX: 8700000 instructions simulated : ctaid=(202,0,0) tid=(325,0,0)
GPGPU-Sim uArch: cycles simulated: 36500  inst.: 8478803 (ipc=232.3) sim_rate=124688 (inst/sec) elapsed = 0:0:01:08 / Fri Aug 15 13:40:36 2014
GPGPU-Sim PTX: 8800000 instructions simulated : ctaid=(199,0,0) tid=(123,0,0)
GPGPU-Sim uArch: cycles simulated: 37000  inst.: 8581431 (ipc=231.9) sim_rate=124368 (inst/sec) elapsed = 0:0:01:09 / Fri Aug 15 13:40:37 2014
GPGPU-Sim PTX: 8900000 instructions simulated : ctaid=(209,0,0) tid=(347,0,0)
GPGPU-Sim uArch: cycles simulated: 37500  inst.: 8702912 (ipc=232.1) sim_rate=124327 (inst/sec) elapsed = 0:0:01:10 / Fri Aug 15 13:40:38 2014
GPGPU-Sim PTX: 9000000 instructions simulated : ctaid=(182,0,0) tid=(437,0,0)
GPGPU-Sim uArch: cycles simulated: 38000  inst.: 8796325 (ipc=231.5) sim_rate=123891 (inst/sec) elapsed = 0:0:01:11 / Fri Aug 15 13:40:39 2014
GPGPU-Sim PTX: 9100000 instructions simulated : ctaid=(191,0,0) tid=(433,0,0)
GPGPU-Sim PTX: 9200000 instructions simulated : ctaid=(201,0,0) tid=(381,0,0)
GPGPU-Sim uArch: cycles simulated: 39000  inst.: 8955939 (ipc=229.6) sim_rate=124388 (inst/sec) elapsed = 0:0:01:12 / Fri Aug 15 13:40:40 2014
GPGPU-Sim uArch: Shader 13 finished CTA #1 (39342,0), 1 CTAs running
GPGPU-Sim uArch: core: 13, cta: 1 initialized @(39343,0)
GPGPU-Sim uArch: Shader 4 finished CTA #1 (39346,0), 1 CTAs running
GPGPU-Sim uArch: core:  4, cta: 1 initialized @(39347,0)
GPGPU-Sim uArch: Shader 13 finished CTA #0 (39359,0), 1 CTAs running
GPGPU-Sim uArch: core: 13, cta: 0 initialized @(39360,0)
GPGPU-Sim uArch: Shader 4 finished CTA #0 (39371,0), 1 CTAs running
GPGPU-Sim uArch: core:  4, cta: 0 initialized @(39372,0)
GPGPU-Sim PTX: 9300000 instructions simulated : ctaid=(194,0,0) tid=(168,0,0)
GPGPU-Sim uArch: Shader 0 finished CTA #0 (39481,0), 1 CTAs running
GPGPU-Sim uArch: core:  0, cta: 0 initialized @(39482,0)
GPGPU-Sim uArch: cycles simulated: 39500  inst.: 9023363 (ipc=228.4) sim_rate=123607 (inst/sec) elapsed = 0:0:01:13 / Fri Aug 15 13:40:41 2014
GPGPU-Sim uArch: Shader 1 finished CTA #1 (39511,0), 1 CTAs running
GPGPU-Sim uArch: core:  1, cta: 1 initialized @(39512,0)
GPGPU-Sim uArch: Shader 8 finished CTA #1 (39543,0), 1 CTAs running
GPGPU-Sim uArch: core:  8, cta: 1 initialized @(39544,0)
GPGPU-Sim uArch: Shader 1 finished CTA #0 (39546,0), 1 CTAs running
GPGPU-Sim uArch: core:  1, cta: 0 initialized @(39547,0)
GPGPU-Sim uArch: Shader 8 finished CTA #0 (39560,0), 1 CTAs running
GPGPU-Sim uArch: core:  8, cta: 0 initialized @(39561,0)
GPGPU-Sim uArch: Shader 0 finished CTA #1 (39673,0), 1 CTAs running
GPGPU-Sim uArch: core:  0, cta: 1 initialized @(39674,0)
GPGPU-Sim PTX: 9400000 instructions simulated : ctaid=(198,0,0) tid=(349,0,0)
GPGPU-Sim uArch: cycles simulated: 40000  inst.: 9184388 (ipc=229.6) sim_rate=124113 (inst/sec) elapsed = 0:0:01:14 / Fri Aug 15 13:40:42 2014
GPGPU-Sim uArch: Shader 2 finished CTA #1 (40110,0), 1 CTAs running
GPGPU-Sim uArch: core:  2, cta: 1 initialized @(40111,0)
GPGPU-Sim PTX: 9500000 instructions simulated : ctaid=(216,0,0) tid=(386,0,0)
GPGPU-Sim uArch: Shader 2 finished CTA #0 (40279,0), 1 CTAs running
GPGPU-Sim uArch: core:  2, cta: 0 initialized @(40280,0)
GPGPU-Sim uArch: Shader 10 finished CTA #1 (40285,0), 1 CTAs running
GPGPU-Sim uArch: core: 10, cta: 1 initialized @(40286,0)
GPGPU-Sim uArch: Shader 11 finished CTA #0 (40386,0), 1 CTAs running
GPGPU-Sim uArch: core: 11, cta: 0 initialized @(40387,0)
GPGPU-Sim uArch: Shader 10 finished CTA #0 (40393,0), 1 CTAs running
GPGPU-Sim uArch: core: 10, cta: 0 initialized @(40394,0)
GPGPU-Sim uArch: Shader 11 finished CTA #1 (40397,0), 1 CTAs running
GPGPU-Sim uArch: core: 11, cta: 1 initialized @(40398,0)
GPGPU-Sim uArch: Shader 14 finished CTA #1 (40470,0), 1 CTAs running
GPGPU-Sim uArch: core: 14, cta: 1 initialized @(40471,0)
GPGPU-Sim uArch: Shader 6 finished CTA #1 (40478,0), 1 CTAs running
GPGPU-Sim uArch: core:  6, cta: 1 initialized @(40479,0)
GPGPU-Sim uArch: cycles simulated: 40500  inst.: 9289322 (ipc=229.4) sim_rate=123857 (inst/sec) elapsed = 0:0:01:15 / Fri Aug 15 13:40:43 2014
GPGPU-Sim uArch: Shader 6 finished CTA #0 (40515,0), 1 CTAs running
GPGPU-Sim uArch: core:  6, cta: 0 initialized @(40516,0)
GPGPU-Sim uArch: Shader 14 finished CTA #0 (40546,0), 1 CTAs running
GPGPU-Sim uArch: core: 14, cta: 0 initialized @(40547,0)
GPGPU-Sim PTX: 9600000 instructions simulated : ctaid=(227,0,0) tid=(137,0,0)
GPGPU-Sim uArch: Shader 12 finished CTA #0 (40559,0), 1 CTAs running
GPGPU-Sim uArch: core: 12, cta: 0 initialized @(40560,0)
GPGPU-Sim uArch: Shader 9 finished CTA #0 (40569,0), 1 CTAs running
GPGPU-Sim uArch: core:  9, cta: 0 initialized @(40570,0)
GPGPU-Sim uArch: Shader 5 finished CTA #1 (40635,0), 1 CTAs running
GPGPU-Sim uArch: core:  5, cta: 1 initialized @(40636,0)
GPGPU-Sim uArch: Shader 12 finished CTA #1 (40651,0), 1 CTAs running
GPGPU-Sim uArch: core: 12, cta: 1 initialized @(40652,0)
GPGPU-Sim uArch: Shader 5 finished CTA #0 (40652,0), 1 CTAs running
GPGPU-Sim uArch: core:  5, cta: 0 initialized @(40653,0)
GPGPU-Sim uArch: Shader 7 finished CTA #1 (40662,0), 1 CTAs running
GPGPU-Sim uArch: core:  7, cta: 1 initialized @(40663,0)
GPGPU-Sim uArch: Shader 9 finished CTA #1 (40684,0), 1 CTAs running
GPGPU-Sim uArch: core:  9, cta: 1 initialized @(40685,0)
GPGPU-Sim PTX: 9700000 instructions simulated : ctaid=(226,0,0) tid=(316,0,0)
GPGPU-Sim uArch: Shader 7 finished CTA #0 (40754,0), 1 CTAs running
GPGPU-Sim uArch: core:  7, cta: 0 initialized @(40755,0)
GPGPU-Sim PTX: 9800000 instructions simulated : ctaid=(235,0,0) tid=(115,0,0)
GPGPU-Sim uArch: cycles simulated: 41000  inst.: 9510018 (ipc=232.0) sim_rate=123506 (inst/sec) elapsed = 0:0:01:17 / Fri Aug 15 13:40:45 2014
GPGPU-Sim PTX: 9900000 instructions simulated : ctaid=(212,0,0) tid=(392,0,0)
GPGPU-Sim PTX: 10000000 instructions simulated : ctaid=(232,0,0) tid=(341,0,0)
GPGPU-Sim uArch: Shader 3 finished CTA #0 (41792,0), 1 CTAs running
GPGPU-Sim uArch: core:  3, cta: 0 initialized @(41793,0)
GPGPU-Sim uArch: cycles simulated: 42000  inst.: 9791314 (ipc=233.1) sim_rate=125529 (inst/sec) elapsed = 0:0:01:18 / Fri Aug 15 13:40:46 2014
GPGPU-Sim uArch: Shader 3 finished CTA #1 (42011,0), 1 CTAs running
GPGPU-Sim uArch: core:  3, cta: 1 initialized @(42012,0)
GPGPU-Sim PTX: 10100000 instructions simulated : ctaid=(220,0,0) tid=(319,0,0)
GPGPU-Sim uArch: cycles simulated: 42500  inst.: 9880393 (ipc=232.5) sim_rate=125068 (inst/sec) elapsed = 0:0:01:19 / Fri Aug 15 13:40:47 2014
GPGPU-Sim PTX: 10200000 instructions simulated : ctaid=(228,0,0) tid=(143,0,0)
GPGPU-Sim PTX: 10300000 instructions simulated : ctaid=(236,0,0) tid=(49,0,0)
GPGPU-Sim uArch: cycles simulated: 43000  inst.: 10001126 (ipc=232.6) sim_rate=125014 (inst/sec) elapsed = 0:0:01:20 / Fri Aug 15 13:40:48 2014
GPGPU-Sim PTX: 10400000 instructions simulated : ctaid=(221,0,0) tid=(436,0,0)
GPGPU-Sim uArch: cycles simulated: 43500  inst.: 10100715 (ipc=232.2) sim_rate=124700 (inst/sec) elapsed = 0:0:01:21 / Fri Aug 15 13:40:49 2014
GPGPU-Sim PTX: 10500000 instructions simulated : ctaid=(235,0,0) tid=(389,0,0)
GPGPU-Sim uArch: cycles simulated: 44500  inst.: 10244292 (ipc=230.2) sim_rate=124930 (inst/sec) elapsed = 0:0:01:22 / Fri Aug 15 13:40:50 2014
GPGPU-Sim uArch: Shader 0 finished CTA #1 (44820,0), 1 CTAs running
GPGPU-Sim uArch: core:  0, cta: 1 initialized @(44821,0)
GPGPU-Sim uArch: Shader 13 finished CTA #0 (44832,0), 1 CTAs running
GPGPU-Sim uArch: core: 13, cta: 0 initialized @(44833,0)
GPGPU-Sim uArch: Shader 8 finished CTA #0 (44834,0), 1 CTAs running
GPGPU-Sim uArch: core:  8, cta: 0 initialized @(44835,0)
GPGPU-Sim PTX: 10600000 instructions simulated : ctaid=(240,0,0) tid=(403,0,0)
GPGPU-Sim uArch: Shader 0 finished CTA #0 (44846,0), 1 CTAs running
GPGPU-Sim uArch: core:  0, cta: 0 initialized @(44847,0)
GPGPU-Sim uArch: Shader 13 finished CTA #1 (44857,0), 1 CTAs running
GPGPU-Sim uArch: core: 13, cta: 1 initialized @(44858,0)
GPGPU-Sim uArch: Shader 8 finished CTA #1 (44976,0), 1 CTAs running
GPGPU-Sim uArch: core:  8, cta: 1 initialized @(44977,0)
GPGPU-Sim uArch: Shader 1 finished CTA #0 (44990,0), 1 CTAs running
GPGPU-Sim uArch: core:  1, cta: 0 initialized @(44991,0)
GPGPU-Sim uArch: cycles simulated: 45000  inst.: 10314763 (ipc=229.2) sim_rate=124274 (inst/sec) elapsed = 0:0:01:23 / Fri Aug 15 13:40:51 2014
GPGPU-Sim uArch: Shader 4 finished CTA #1 (45031,0), 1 CTAs running
GPGPU-Sim uArch: core:  4, cta: 1 initialized @(45032,0)
GPGPU-Sim uArch: Shader 1 finished CTA #1 (45049,0), 1 CTAs running
GPGPU-Sim uArch: core:  1, cta: 1 initialized @(45050,0)
GPGPU-Sim PTX: 10700000 instructions simulated : ctaid=(237,0,0) tid=(11,0,0)
GPGPU-Sim uArch: Shader 4 finished CTA #0 (45252,0), 1 CTAs running
GPGPU-Sim uArch: core:  4, cta: 0 initialized @(45253,0)
GPGPU-Sim uArch: cycles simulated: 45500  inst.: 10466622 (ipc=230.0) sim_rate=124602 (inst/sec) elapsed = 0:0:01:24 / Fri Aug 15 13:40:52 2014
GPGPU-Sim PTX: 10800000 instructions simulated : ctaid=(246,0,0) tid=(226,0,0)
GPGPU-Sim uArch: Shader 2 finished CTA #0 (45638,0), 1 CTAs running
GPGPU-Sim uArch: core:  2, cta: 0 initialized @(45639,0)
GPGPU-Sim uArch: Shader 2 finished CTA #1 (45805,0), 1 CTAs running
GPGPU-Sim uArch: core:  2, cta: 1 initialized @(45806,0)
GPGPU-Sim uArch: cycles simulated: 46000  inst.: 10556537 (ipc=229.5) sim_rate=124194 (inst/sec) elapsed = 0:0:01:25 / Fri Aug 15 13:40:53 2014
GPGPU-Sim PTX: 10900000 instructions simulated : ctaid=(248,0,0) tid=(250,0,0)
GPGPU-Sim uArch: Shader 12 finished CTA #1 (46092,0), 1 CTAs running
GPGPU-Sim uArch: core: 12, cta: 1 initialized @(46093,0)
GPGPU-Sim uArch: Shader 12 finished CTA #0 (46117,0), 1 CTAs running
GPGPU-Sim uArch: core: 12, cta: 0 initialized @(46118,0)
GPGPU-Sim uArch: Shader 9 finished CTA #0 (46126,0), 1 CTAs running
GPGPU-Sim uArch: core:  9, cta: 0 initialized @(46127,0)
GPGPU-Sim uArch: Shader 5 finished CTA #1 (46150,0), 1 CTAs running
GPGPU-Sim uArch: core:  5, cta: 1 initialized @(46151,0)
GPGPU-Sim uArch: Shader 7 finished CTA #0 (46222,0), 1 CTAs running
GPGPU-Sim uArch: Shader 9 finished CTA #1 (46222,0), 1 CTAs running
GPGPU-Sim uArch: core:  7, cta: 0 initialized @(46223,0)
GPGPU-Sim uArch: core:  9, cta: 1 initialized @(46223,0)
GPGPU-Sim uArch: Shader 5 finished CTA #0 (46226,0), 1 CTAs running
GPGPU-Sim uArch: core:  5, cta: 0 initialized @(46227,0)
GPGPU-Sim uArch: Shader 7 finished CTA #1 (46239,0), 1 CTAs running
GPGPU-Sim uArch: core:  7, cta: 1 initialized @(46240,0)
GPGPU-Sim uArch: Shader 14 finished CTA #1 (46240,0), 1 CTAs running
GPGPU-Sim uArch: core: 14, cta: 1 initialized @(46241,0)
GPGPU-Sim uArch: Shader 6 finished CTA #1 (46260,0), 1 CTAs running
GPGPU-Sim uArch: core:  6, cta: 1 initialized @(46261,0)
GPGPU-Sim uArch: Shader 10 finished CTA #1 (46311,0), 1 CTAs running
GPGPU-Sim uArch: core: 10, cta: 1 initialized @(46312,0)
GPGPU-Sim uArch: Shader 11 finished CTA #0 (46314,0), 1 CTAs running
GPGPU-Sim uArch: core: 11, cta: 0 initialized @(46315,0)
GPGPU-Sim uArch: Shader 14 finished CTA #0 (46323,0), 1 CTAs running
GPGPU-Sim uArch: core: 14, cta: 0 initialized @(46324,0)
GPGPU-Sim PTX: 11000000 instructions simulated : ctaid=(254,0,0) tid=(194,0,0)
GPGPU-Sim uArch: Shader 6 finished CTA #0 (46444,0), 1 CTAs running
GPGPU-Sim uArch: core:  6, cta: 0 initialized @(46445,0)
GPGPU-Sim uArch: cycles simulated: 46500  inst.: 10743123 (ipc=231.0) sim_rate=124920 (inst/sec) elapsed = 0:0:01:26 / Fri Aug 15 13:40:54 2014
GPGPU-Sim PTX: 11100000 instructions simulated : ctaid=(250,0,0) tid=(82,0,0)
GPGPU-Sim uArch: Shader 3 finished CTA #0 (46536,0), 1 CTAs running
GPGPU-Sim uArch: core:  3, cta: 0 initialized @(46537,0)
GPGPU-Sim PTX: 11200000 instructions simulated : ctaid=(249,0,0) tid=(469,0,0)
GPGPU-Sim uArch: Shader 11 finished CTA #1 (46891,0), 1 CTAs running
GPGPU-Sim uArch: core: 11, cta: 1 initialized @(46892,0)
GPGPU-Sim uArch: Shader 10 finished CTA #0 (46995,0), 1 CTAs running
GPGPU-Sim uArch: core: 10, cta: 0 initialized @(46996,0)
GPGPU-Sim uArch: cycles simulated: 47000  inst.: 10895078 (ipc=231.8) sim_rate=125230 (inst/sec) elapsed = 0:0:01:27 / Fri Aug 15 13:40:55 2014
GPGPU-Sim uArch: Shader 3 finished CTA #1 (47085,0), 1 CTAs running
GPGPU-Sim uArch: core:  3, cta: 1 initialized @(47086,0)
GPGPU-Sim PTX: 11300000 instructions simulated : ctaid=(247,0,0) tid=(18,0,0)
GPGPU-Sim PTX: 11400000 instructions simulated : ctaid=(265,0,0) tid=(190,0,0)
GPGPU-Sim uArch: cycles simulated: 47500  inst.: 11069854 (ipc=233.0) sim_rate=125793 (inst/sec) elapsed = 0:0:01:28 / Fri Aug 15 13:40:56 2014
GPGPU-Sim PTX: 11500000 instructions simulated : ctaid=(245,0,0) tid=(223,0,0)
GPGPU-Sim uArch: cycles simulated: 48000  inst.: 11184710 (ipc=233.0) sim_rate=125670 (inst/sec) elapsed = 0:0:01:29 / Fri Aug 15 13:40:57 2014
GPGPU-Sim PTX: 11600000 instructions simulated : ctaid=(257,0,0) tid=(422,0,0)
GPGPU-Sim uArch: cycles simulated: 48500  inst.: 11277966 (ipc=232.5) sim_rate=125310 (inst/sec) elapsed = 0:0:01:30 / Fri Aug 15 13:40:58 2014
GPGPU-Sim PTX: 11700000 instructions simulated : ctaid=(264,0,0) tid=(229,0,0)
GPGPU-Sim uArch: cycles simulated: 49000  inst.: 11396666 (ipc=232.6) sim_rate=125238 (inst/sec) elapsed = 0:0:01:31 / Fri Aug 15 13:40:59 2014
GPGPU-Sim PTX: 11800000 instructions simulated : ctaid=(246,0,0) tid=(65,0,0)
GPGPU-Sim uArch: Shader 8 finished CTA #1 (49966,0), 1 CTAs running
GPGPU-Sim uArch: core:  8, cta: 1 initialized @(49967,0)
GPGPU-Sim PTX: 11900000 instructions simulated : ctaid=(258,0,0) tid=(418,0,0)
GPGPU-Sim uArch: cycles simulated: 50000  inst.: 11545330 (ipc=230.9) sim_rate=125492 (inst/sec) elapsed = 0:0:01:32 / Fri Aug 15 13:41:00 2014
GPGPU-Sim uArch: Shader 0 finished CTA #1 (50032,0), 1 CTAs running
GPGPU-Sim uArch: core:  0, cta: 1 initialized @(50033,0)
GPGPU-Sim uArch: Shader 0 finished CTA #0 (50071,0), 1 CTAs running
GPGPU-Sim uArch: core:  0, cta: 0 initialized @(50072,0)
GPGPU-Sim uArch: Shader 13 finished CTA #0 (50333,0), 1 CTAs running
GPGPU-Sim uArch: core: 13, cta: 0 initialized @(50334,0)
GPGPU-Sim uArch: Shader 8 finished CTA #0 (50353,0), 1 CTAs running
GPGPU-Sim uArch: core:  8, cta: 0 initialized @(50354,0)
GPGPU-Sim uArch: Shader 13 finished CTA #1 (50358,0), 1 CTAs running
GPGPU-Sim uArch: core: 13, cta: 1 initialized @(50359,0)
GPGPU-Sim uArch: Shader 1 finished CTA #0 (50457,0), 1 CTAs running
GPGPU-Sim uArch: core:  1, cta: 0 initialized @(50458,0)
GPGPU-Sim PTX: 12000000 instructions simulated : ctaid=(252,0,0) tid=(169,0,0)
GPGPU-Sim uArch: cycles simulated: 50500  inst.: 11639999 (ipc=230.5) sim_rate=125161 (inst/sec) elapsed = 0:0:01:33 / Fri Aug 15 13:41:01 2014
GPGPU-Sim uArch: Shader 1 finished CTA #1 (50617,0), 1 CTAs running
GPGPU-Sim uArch: core:  1, cta: 1 initialized @(50618,0)
GPGPU-Sim uArch: Shader 2 finished CTA #1 (50685,0), 1 CTAs running
GPGPU-Sim uArch: core:  2, cta: 1 initialized @(50686,0)
GPGPU-Sim uArch: Shader 2 finished CTA #0 (50784,0), 1 CTAs running
GPGPU-Sim uArch: core:  2, cta: 0 initialized @(50785,0)
GPGPU-Sim uArch: Shader 4 finished CTA #1 (50864,0), 1 CTAs running
GPGPU-Sim uArch: core:  4, cta: 1 initialized @(50865,0)
GPGPU-Sim PTX: 12100000 instructions simulated : ctaid=(276,0,0) tid=(207,0,0)
GPGPU-Sim uArch: Shader 4 finished CTA #0 (50963,0), 1 CTAs running
[...]
dq_lat_table:0 	0 	0 	0 	0 	0 	0 	0 	0 	0 	0 	0 	0 	0 	0 	0 	0 	0 	0 	0 	0 	0 	0 	0 	0 	0 	0 	0 	0 	0 	0 	0 	
mf_lat_table:0 	0 	0 	0 	0 	0 	0 	546881 	490316 	861 	0 	0 	0 	0 	0 	0 	0 	0 	0 	0 	0 	0 	0 	0 	0 	0 	0 	0 	0 	0 	0 	0 	
icnt2mem_lat_table:0 	0 	0 	782171 	233469 	21788 	515 	298 	12 	0 	0 	0 	0 	0 	0 	0 	0 	0 	0 	0 	0 	0 	0 	0 	
icnt2sh_lat_table:0 	0 	0 	145023 	249890 	322612 	202803 	7730 	0 	0 	0 	120 	180 	517 	895 	1778 	3550 	7103 	14172 	28295 	51435 	1955 	0 	0 	
mf_lat_pw_table:0 	0 	0 	0 	0 	0 	0 	2711 	1562 	0 	0 	0 	0 	0 	0 	0 	0 	0 	0 	0 	0 	0 	0 	0 	0 	0 	0 	0 	0 	0 	0 	0 	
maximum concurrent accesses to same row:
dram[0]:         5         5         5         7        12        10        20        14         8         6         8         7        10        10         8         5 
dram[1]:         5         5         5         5        11        12        21        21         8        10         7         7        10         7         5         5 
dram[2]:         5         5         6         6        11        11        16        19         5        10         5         5        10         7         7         6 
dram[3]:         7         6         5         5        14        11        21        17         9         8         8         7         8         8         8         8 
dram[4]:         5         6         5         5         8        10        15        21         8         9         6         6         9         9         6         6 
dram[5]:         6         6         6         5        10        13        17        19         5         6         7         6         9        10         5         6 
maximum service time to same row:
dram[0]:      8150      9491      8124      5904     11902      7710      7835      6792      8297      6778      8225      9310      8903      8409      8974      7690 
dram[1]:      7813      7951      6541      5940      8697      8581      7662      7659      8034      6378     10159     10443      8725      9672      9331      8396 
dram[2]:     10534      7791      6063      8954      7981      7171      8128      8997      6544      8042      7657     10778      7938      6201      8668      8561 
dram[3]:      7262      9669      7347      9160      7328      8203      7125      6838      6638      8737      6947     10852      9617      6971      7960      8552 
dram[4]:      8440      7268      6919      9547      8686      8204      8410      7400      7387      8825     10972     10328      9477     10404      7634      9178 
dram[5]:     10280      8140      8756      9546      9111     10626     12012      7778      8010      6331      7747     10862      9650      7119      7769      6206 
average row accesses per activate:
dram[0]:  1.849685  1.850024  1.810549  1.837580  1.827358  1.832086  1.789763  1.782759  1.836753  1.817468  1.806808  1.818020  1.904492  1.868117  1.865411  1.840770 
dram[1]:  1.845064  1.829535  1.874379  1.804649  1.818308  1.825827  1.801621  1.766695  1.845260  1.837112  1.809788  1.821222  1.852221  1.858486  1.838078  1.807904 
dram[2]:  1.852246  1.826563  1.854890  1.853346  1.840525  1.813721  1.784615  1.780287  1.813067  1.826401  1.808364  1.824728  1.865047  1.849162  1.830417  1.806173 
dram[3]:  1.832100  1.866880  1.849333  1.843750  1.805130  1.818265  1.769934  1.761250  1.845833  1.845393  1.808318  1.811017  1.852810  1.851251  1.861818  1.850739 
dram[4]:  1.826797  1.828392  1.859310  1.847737  1.836271  1.832093  1.762669  1.787145  1.838619  1.844804  1.832956  1.801732  1.861991  1.877752  1.832428  1.837305 
dram[5]:  1.848312  1.858041  1.859887  1.820432  1.839981  1.833333  1.773231  1.776958  1.841682  1.819154  1.798165  1.801645  1.862844  1.851886  1.838634  1.878049 
average row locality = 387574/211855 = 1.829430
number of total memory accesses made:
dram[0]:         0         0         0         0         0         0         0         0         0         0         0         0         0         0         0         0 
dram[1]:         0         0         0         0         0         0         0         0         0         0         0         0         0         0         0         0 
dram[2]:         0         0         0         0         0         0         0         0         0         0         0         0         0         0         0         0 
dram[3]:         0         0         0         0         0         0         0         0         0         0         0         0         0         0         0         0 
dram[4]:         0         0         0         0         0         0         0         0         0         0         0         0         0         0         0         0 
dram[5]:         0         0         0         0         0         0         0         0         0         0         0         0         0         0         0         0 
total accesses: 0
min_bank_accesses = 0!
min_chip_accesses = 0!
number of total read accesses:
dram[0]:      4022      3808      4119      4039      3870      3911      4171      4076      3909      3810      3851      4005      3897      3904      3977      3848 
dram[1]:      3950      3918      4148      4037      3929      3967      4163      4067      3830      3833      3846      4015      3960      3827      4044      3869 
dram[2]:      3913      3911      4116      4044      3920      3986      4116      4040      3878      3899      3866      3958      4024      3850      4005      3914 
dram[3]:      3862      3989      4161      4012      4005      3956      4202      4167      3854      3965      3931      3972      4037      3877      4023      3936 
dram[4]:      3821      3977      4044      4041      3953      3933      4114      4222      3812      3966      3982      3886      3995      3885      3967      3936 
dram[5]:      3792      4045      3969      4045      3915      3888      4100      4272      3773      3958      4047      3872      3938      3949      3855      3938 
total reads: 380899
bank skew: 4272/3773 = 1.13
chip skew: 63949/63217 = 1.01
number of total write accesses:
dram[0]:        88        90         0         0         4         6        60        60       119       123        77        71       131       133        84        71 
dram[1]:        87        96         0         0         4         6        60        60       141       137        74        70       126       126        88        65 
dram[2]:        86        91         0         0         4         6        60        60       118       141        69        71       122       122        75        65 
dram[3]:        99        92         0         0         6         6        60        60       133       141        69        72       117       118        73        69 
dram[4]:        92        93         0         0         6         6        60        60       130       135        67        67       120       124        79        73 
dram[5]:        95        91         0         0         6         6        60        62       124       126        69        70       123       127        76        66 
total reads: 6675
min_bank_accesses = 0!
chip skew: 1140/1090 = 1.05
average mf latency per bank:
dram[0]:        393       402       351       351      1240      1078      1298      1325       505       506       521       525       472       474       439       450
dram[1]:        394       401       352       356      1107      1307      1311      1497       504       519       529       531       472       485       438       454
dram[2]:        398       398       353       360      1117      1520      1329      1386       508       505       528       531       477       478       448       448
dram[3]:        397       399       351       361      1285      1434      1444      1354       506       506       532       530       477       480       450       447
dram[4]:        393       403       348       363      1047      1459      1289      1359       504       515       522       535       466       481       442       462
dram[5]:        397       396       351       356      1061      1530      1304      1386       507       513       523       539       471       477       443       458
maximum mf latency per bank:
dram[0]:        588       547       622       557       584       547       574       542       575       534       536       588       576       536       622       547
dram[1]:        605       536       642       536       596       601       599       619       533       573       609       556       567       569       583       541
dram[2]:        580       537       543       599       526       697       586       571       566       559       580       529       554       531       545       541
dram[3]:        534       536       558       515       550       634       539       575       530       553       554       596       528       567       560       551
dram[4]:        570       619       514       583       547       590       551       625       557       602       536       556       550       644       560       545
dram[5]:        539       570       530       561       609       533       632       540       560       522       531       564       538       565       545       594

Number of Memory Banks Accessed per Memory Operation per Warp (from 0):
0	0	0	0	0	0	0	0	0	0	0	0	0	0	0	0	0	0	0	0	0	0	0	0	0	0	0	0	0	0	0	0	0	0	0	0	0	0	0	0	0	0	0	0	0	0	0	0	0	0	0	0	0	0	0	0	0	0	0	0	0	0	0	0	0	0	0	0	0	0	0	0	0	0	0	0	0	0	0	0	0	0	0	0	0	0	0	0	0	0	0	0	0	0	0	0	
Average # of Memory Banks Accessed per Memory Operation per Warp=-nan

position of mrq chosen
0	0	0	0	0	0	0	0	0	0	0	0	0	0	0	0	

average position of mrq chosen = -nan
Memory Partition 0: 
Cache L2_bank_000:
MSHR contents

Cache L2_bank_001:
MSHR contents

In Dram Latency Queue (total = 0): 
DRAM[0]: 16 bks, busW=4 BL=8 CL=12, tRRD=2 tCCD=6, tRCD=12 tRAS=28 tRP=12 tRC=40
n_cmd=2822175 n_nop=2623876 n_act=35100 n_pre=35084 n_req=64334 n_rd=126434 n_write=1681 bw_util=0.09079
n_activity=1215336 dram_eff=0.2108
bk0: 8044a 2743155i bk1: 7616a 2746483i bk2: 8238a 2741821i bk3: 8078a 2743818i bk4: 7740a 2746716i bk5: 7822a 2746682i bk6: 8342a 2738490i bk7: 8152a 2739043i bk8: 7818a 2744250i bk9: 7620a 2744678i bk10: 7702a 2744461i bk11: 8010a 2742062i bk12: 7794a 2744974i bk13: 7808a 2744189i bk14: 7954a 2743570i bk15: 7696a 2745373i 
dram_util_bins: 0 0 0 0 0 0 0 0 0 0
dram_eff_bins: 0 0 0 0 0 0 0 0 0 0
mrqq: max=11 avg=0.188323
Memory Partition 1: 
Cache L2_bank_002:
MSHR contents

Cache L2_bank_003:
MSHR contents

In Dram Latency Queue (total = 0): 
DRAM[1]: 16 bks, busW=4 BL=8 CL=12, tRRD=2 tCCD=6, tRCD=12 tRAS=28 tRP=12 tRC=40
n_cmd=2822175 n_nop=2623021 n_act=35330 n_pre=35314 n_req=64543 n_rd=126806 n_write=1704 bw_util=0.09107
n_activity=1220046 dram_eff=0.2107
bk0: 7900a 2744246i bk1: 7836a 2743539i bk2: 8296a 2743321i bk3: 8074a 2743452i bk4: 7858a 2745929i bk5: 7934a 2745083i bk6: 8326a 2738784i bk7: 8134a 2738718i bk8: 7660a 2744735i bk9: 7666a 2744757i bk10: 7692a 2744822i bk11: 8030a 2742003i bk12: 7920a 2742405i bk13: 7654a 2744925i bk14: 8088a 2741547i bk15: 7738a 2744519i 
dram_util_bins: 0 0 0 0 0 0 0 0 0 0
dram_eff_bins: 0 0 0 0 0 0 0 0 0 0
mrqq: max=10 avg=0.188784
Memory Partition 2: 
Cache L2_bank_004:
MSHR contents

Cache L2_bank_005:
MSHR contents

In Dram Latency Queue (total = 0): 
DRAM[2]: 16 bks, busW=4 BL=8 CL=12, tRRD=2 tCCD=6, tRCD=12 tRAS=28 tRP=12 tRC=40
n_cmd=2822175 n_nop=2622998 n_act=35330 n_pre=35314 n_req=64530 n_rd=126880 n_write=1653 bw_util=0.09109
n_activity=1218292 dram_eff=0.211
bk0: 7826a 2745000i bk1: 7822a 2743803i bk2: 8232a 2743531i bk3: 8088a 2744119i bk4: 7840a 2746494i bk5: 7972a 2744449i bk6: 8232a 2738831i bk7: 8080a 2739601i bk8: 7756a 2743648i bk9: 7798a 2742724i bk10: 7732a 2744278i bk11: 7916a 2743111i bk12: 8048a 2741908i bk13: 7700a 2744908i bk14: 8010a 2742147i bk15: 7828a 2743176i 
dram_util_bins: 0 0 0 0 0 0 0 0 0 0
dram_eff_bins: 0 0 0 0 0 0 0 0 0 0
mrqq: max=11 avg=0.189839
Memory Partition 3: 
Cache L2_bank_006:
MSHR contents

Cache L2_bank_007:
MSHR contents

In Dram Latency Queue (total = 0): 
DRAM[3]: 16 bks, busW=4 BL=8 CL=12, tRRD=2 tCCD=6, tRCD=12 tRAS=28 tRP=12 tRC=40
n_cmd=2822175 n_nop=2621459 n_act=35577 n_pre=35561 n_req=65064 n_rd=127898 n_write=1680 bw_util=0.09183
n_activity=1223332 dram_eff=0.2118
bk0: 7724a 2745423i bk1: 7978a 2744016i bk2: 8322a 2742449i bk3: 8024a 2744771i bk4: 8010a 2744062i bk5: 7912a 2745450i bk6: 8404a 2736853i bk7: 8334a 2736196i bk8: 7708a 2744693i bk9: 7930a 2742108i bk10: 7862a 2743410i bk11: 7944a 2742519i bk12: 8074a 2741341i bk13: 7754a 2744000i bk14: 8046a 2743000i bk15: 7872a 2743961i 
dram_util_bins: 0 0 0 0 0 0 0 0 0 0
dram_eff_bins: 0 0 0 0 0 0 0 0 0 0
mrqq: max=11 avg=0.190434
Memory Partition 4: 
Cache L2_bank_008:
MSHR contents

Cache L2_bank_009:
MSHR contents

In Dram Latency Queue (total = 0): 
DRAM[4]: 16 bks, busW=4 BL=8 CL=12, tRRD=2 tCCD=6, tRCD=12 tRAS=28 tRP=12 tRC=40
n_cmd=2822175 n_nop=2622835 n_act=35305 n_pre=35289 n_req=64646 n_rd=127068 n_write=1678 bw_util=0.09124
n_activity=1215075 dram_eff=0.2119
bk0: 7642a 2745707i bk1: 7954a 2743020i bk2: 8088a 2744590i bk3: 8082a 2744326i bk4: 7906a 2745713i bk5: 7866a 2746058i bk6: 8228a 2738225i bk7: 8444a 2736603i bk8: 7624a 2745066i bk9: 7932a 2742261i bk10: 7964a 2742768i bk11: 7772a 2743594i bk12: 7990a 2742451i bk13: 7770a 2744699i bk14: 7934a 2742683i bk15: 7872a 2743674i 
dram_util_bins: 0 0 0 0 0 0 0 0 0 0
dram_eff_bins: 0 0 0 0 0 0 0 0 0 0
mrqq: max=12 avg=0.192199
Memory Partition 5: 
Cache L2_bank_010:
MSHR contents

Cache L2_bank_011:
MSHR contents

In Dram Latency Queue (total = 0): 
DRAM[5]: 16 bks, busW=4 BL=8 CL=12, tRRD=2 tCCD=6, tRCD=12 tRAS=28 tRP=12 tRC=40
n_cmd=2822175 n_nop=2623385 n_act=35214 n_pre=35198 n_req=64457 n_rd=126712 n_write=1666 bw_util=0.09098
n_activity=1215630 dram_eff=0.2112
bk0: 7584a 2747230i bk1: 8090a 2742800i bk2: 7938a 2746179i bk3: 8090a 2743712i bk4: 7830a 2746747i bk5: 7776a 2746976i bk6: 8200a 2738970i bk7: 8544a 2734778i bk8: 7546a 2745826i bk9: 7916a 2742015i bk10: 8094a 2740870i bk11: 7744a 2743660i bk12: 7876a 2743470i bk13: 7898a 2742388i bk14: 7710a 2745231i bk15: 7876a 2744849i 
dram_util_bins: 0 0 0 0 0 0 0 0 0 0
dram_eff_bins: 0 0 0 0 0 0 0 0 0 0
mrqq: max=12 avg=0.189964

========= L2 cache stats =========
L2_cache_bank[0]: Access = 85621, Miss = 31816, Miss_rate = 0.372, Pending_hits = 428, Reservation_fails = 1584
L2_cache_bank[1]: Access = 81309, Miss = 31401, Miss_rate = 0.386, Pending_hits = 388, Reservation_fails = 963
L2_cache_bank[2]: Access = 82535, Miss = 31870, Miss_rate = 0.386, Pending_hits = 445, Reservation_fails = 1371
L2_cache_bank[3]: Access = 89672, Miss = 31533, Miss_rate = 0.352, Pending_hits = 433, Reservation_fails = 859
L2_cache_bank[4]: Access = 82501, Miss = 31838, Miss_rate = 0.386, Pending_hits = 407, Reservation_fails = 822
L2_cache_bank[5]: Access = 91561, Miss = 31602, Miss_rate = 0.345, Pending_hits = 420, Reservation_fails = 611
L2_cache_bank[6]: Access = 90421, Miss = 32075, Miss_rate = 0.355, Pending_hits = 410, Reservation_fails = 815
L2_cache_bank[7]: Access = 89070, Miss = 31874, Miss_rate = 0.358, Pending_hits = 418, Reservation_fails = 775
L2_cache_bank[8]: Access = 82062, Miss = 31688, Miss_rate = 0.386, Pending_hits = 405, Reservation_fails = 1083
L2_cache_bank[9]: Access = 89165, Miss = 31846, Miss_rate = 0.357, Pending_hits = 426, Reservation_fails = 807
L2_cache_bank[10]: Access = 81463, Miss = 31389, Miss_rate = 0.385, Pending_hits = 392, Reservation_fails = 1523
L2_cache_bank[11]: Access = 92873, Miss = 31967, Miss_rate = 0.344, Pending_hits = 403, Reservation_fails = 1089
L2_total_cache_accesses = 1038253
L2_total_cache_misses = 380899
L2_total_cache_miss_rate = 0.3669
L2_total_cache_pending_hits = 4975
L2_total_cache_reservation_fails = 12302
L2_total_cache_breakdown:
	L2_cache_stats_breakdown[GLOBAL_ACC_R][HIT] = 545495
	L2_cache_stats_breakdown[GLOBAL_ACC_R][HIT_RESERVED] = 3087
	L2_cache_stats_breakdown[GLOBAL_ACC_R][MISS] = 379446
	L2_cache_stats_breakdown[GLOBAL_ACC_R][RESERVATION_FAIL] = 4438
	L2_cache_stats_breakdown[CONST_ACC_R][HIT] = 26
	L2_cache_stats_breakdown[CONST_ACC_R][HIT_RESERVED] = 3
	L2_cache_stats_breakdown[CONST_ACC_R][MISS] = 1
	L2_cache_stats_breakdown[CONST_ACC_R][RESERVATION_FAIL] = 100
	L2_cache_stats_breakdown[GLOBAL_ACC_W][HIT] = 106712
	L2_cache_stats_breakdown[GLOBAL_ACC_W][HIT_RESERVED] = 1849
	L2_cache_stats_breakdown[GLOBAL_ACC_W][MISS] = 1439
	L2_cache_stats_breakdown[GLOBAL_ACC_W][RESERVATION_FAIL] = 6854
	L2_cache_stats_breakdown[INST_ACC_R][HIT] = 146
	L2_cache_stats_breakdown[INST_ACC_R][HIT_RESERVED] = 36
	L2_cache_stats_breakdown[INST_ACC_R][MISS] = 13
	L2_cache_stats_breakdown[INST_ACC_R][RESERVATION_FAIL] = 910
L2_cache_data_port_util = 0.090
L2_cache_fill_port_util = 0.059

icnt_total_pkts_mem_to_simt=4751205
icnt_total_pkts_simt_to_mem=1148253
LD_mem_lat_dist  0 0 0 0 0 0 0 0 0 0 0 0 0 0 0 0 0 0 0 0 0 0 0 0 0 0 0
ST_mem_lat_dist  0 0 0 0 0 0 0 0 0 0 0 0 0 0 0 0 0 0 0 0 0 0 0 0 0 0 0
----------------------------Interconnect-DETAILS--------------------------------
Class 0:
Packet latency average = 24.8729
	minimum = 6
	maximum = 185
Network latency average = 20.0037
	minimum = 6
	maximum = 150
Slowest packet = 1034855
Flit latency average = 21.4779
	minimum = 6
	maximum = 146
Slowest flit = 3084721
Fragmentation average = 5.2392e-05
	minimum = 0
	maximum = 40
Injected packet rate average = 0.0379439
	minimum = 0.0337507 (at node 8)
	maximum = 0.0466883 (at node 15)
Accepted packet rate average = 0.0379439
	minimum = 0.0337507 (at node 8)
	maximum = 0.0466883 (at node 15)
Injected flit rate average = 0.10841
	minimum = 0.0369859 (at node 8)
	maximum = 0.217202 (at node 15)
Accepted flit rate average= 0.10841
	minimum = 0.0406953 (at node 25)
	maximum = 0.160527 (at node 13)
Injected packet length average = 2.85711
Accepted packet length average = 2.85711
Total in-flight flits = 0 (0 measured)
====== Overall Traffic Statistics ======
====== Traffic class 0 ======
Packet latency average = 25.258 (2 samples)
	minimum = 6 (2 samples)
	maximum = 177.5 (2 samples)
Network latency average = 20.3616 (2 samples)
	minimum = 6 (2 samples)
	maximum = 148.5 (2 samples)
Flit latency average = 21.8881 (2 samples)
	minimum = 6 (2 samples)
	maximum = 144.5 (2 samples)
Fragmentation average = 3.69097e-05 (2 samples)
	minimum = 0 (2 samples)
	maximum = 31 (2 samples)
Injected packet rate average = 0.0360501 (2 samples)
	minimum = 0.0320331 (2 samples)
	maximum = 0.0441979 (2 samples)
Accepted packet rate average = 0.0360501 (2 samples)
	minimum = 0.0320331 (2 samples)
	maximum = 0.0441979 (2 samples)
Injected flit rate average = 0.102444 (2 samples)
	minimum = 0.0354561 (2 samples)
	maximum = 0.203902 (2 samples)
Accepted flit rate average = 0.102444 (2 samples)
	minimum = 0.0393727 (2 samples)
	maximum = 0.151833 (2 samples)
Injected packet size average = 2.84172 (2 samples)
Accepted packet size average = 2.84172 (2 samples)
Hops average = 1 (2 samples)
----------------------------END-of-Interconnect-DETAILS-------------------------


gpgpu_simulation_time = 0 days, 0 hrs, 43 min, 4 sec (2584 sec)
gpgpu_simulation_rate = 209872 (inst/sec)
gpgpu_simulation_rate = 827 (cycle/sec)
GPGPU-Sim: synchronize waiting for inactive GPU simulation
GPGPU-Sim API: Stream Manager State
GPGPU-Sim: detected inactive GPU simulation thread
Time spent in different stages of GPU_CUDA KERNEL:
 0.000026000000 s,  0.000002281597 % : GPU: SET DEVICE / DRIVER INIT
 0.000002000000 s,  0.000000175507 % : GPU MEM: ALO
 0.716723024845 s,  0.062895104289 % : GPU MEM: COPY IN
1138.834472656250 s, 99.936950683594 % : GPU: KERNEL
 0.001735000056 s,  0.000152252702 % : GPU MEM: COPY OUT
 0.000001000000 s,  0.000000087754 % : GPU MEM: FRE
Total time:
1139.552856445312 s
> > > > > > > > > > 
