

        *** GPGPU-Sim Simulator Version 3.2.2  [build 17315] ***


GPGPU-Sim PTX: simulation mode 0 (can change with PTX_SIM_MODE_FUNC environment variable:
               1=functional simulation only, 0=detailed performance simulator)
GPGPU-Sim: Configuration options:

-network_mode                           1 # Interconnection network mode
-inter_config_file   config_fermi_islip.icnt # Interconnection network config file
-gpgpu_ptx_use_cuobjdump                    1 # Use cuobjdump to extract ptx and sass from binaries
-gpgpu_experimental_lib_support                    0 # Try to extract code from cuda libraries [Broken because of unknown cudaGetExportTable]
-gpgpu_ptx_convert_to_ptxplus                    0 # Convert SASS (native ISA) to ptxplus and run ptxplus
-gpgpu_ptx_force_max_capability                   20 # Force maximum compute capability
-gpgpu_ptx_inst_debug_to_file                    0 # Dump executed instructions' debug information to file
-gpgpu_ptx_inst_debug_file       inst_debug.txt # Executed instructions' debug output file
-gpgpu_ptx_inst_debug_thread_uid                    1 # Thread UID for executed instructions' debug output
-gpgpu_simd_model                       1 # 1 = post-dominator
-gpgpu_shader_core_pipeline              1536:32 # shader core pipeline config, i.e., {<nthread>:<warpsize>}
-gpgpu_tex_cache:l1  4:128:24,L:R:m:N,F:128:4,128:2 # per-shader L1 texture cache  (READ-ONLY) config  {<nsets>:<bsize>:<assoc>,<rep>:<wr>:<alloc>:<wr_alloc>,<mshr>:<N>:<merge>,<mq>:<rf>}
-gpgpu_const_cache:l1 64:64:2,L:R:f:N,A:2:32,4 # per-shader L1 constant memory cache  (READ-ONLY) config  {<nsets>:<bsize>:<assoc>,<rep>:<wr>:<alloc>:<wr_alloc>,<mshr>:<N>:<merge>,<mq>} 
-gpgpu_cache:il1     4:128:4,L:R:f:N,A:2:32,4 # shader L1 instruction cache config  {<nsets>:<bsize>:<assoc>,<rep>:<wr>:<alloc>:<wr_alloc>,<mshr>:<N>:<merge>,<mq>} 
-gpgpu_cache:dl1     32:128:6,F:L:m:N,A:32:8,8 # per-shader L1 data cache config  {<nsets>:<bsize>:<assoc>,<rep>:<wr>:<alloc>:<wr_alloc>,<mshr>:<N>:<merge>,<mq> | none}
-gpgpu_cache:dl1PrefL1                 none # per-shader L1 data cache config  {<nsets>:<bsize>:<assoc>,<rep>:<wr>:<alloc>:<wr_alloc>,<mshr>:<N>:<merge>,<mq> | none}
-gpgpu_cache:dl1PreShared                 none # per-shader L1 data cache config  {<nsets>:<bsize>:<assoc>,<rep>:<wr>:<alloc>:<wr_alloc>,<mshr>:<N>:<merge>,<mq> | none}
-gmem_skip_L1D                          0 # global memory access skip L1D cache (implements -Xptxas -dlcm=cg, default=no skip)
-gpgpu_perfect_mem                      0 # enable perfect memory mode (no cache miss)
-n_regfile_gating_group                    4 # group of lanes that should be read/written together)
-gpgpu_clock_gated_reg_file                    0 # enable clock gated reg file for power calculations
-gpgpu_clock_gated_lanes                    0 # enable clock gated lanes for power calculations
-gpgpu_shader_registers                32768 # Number of registers per shader core. Limits number of concurrent CTAs. (default 8192)
-gpgpu_shader_cta                       8 # Maximum number of concurrent CTAs in shader (default 8)
-gpgpu_n_clusters                      15 # number of processing clusters
-gpgpu_n_cores_per_cluster                    1 # number of simd cores per cluster
-gpgpu_n_cluster_ejection_buffer_size                    8 # number of packets in ejection buffer
-gpgpu_n_ldst_response_buffer_size                    2 # number of response packets in ld/st unit ejection buffer
-gpgpu_shmem_size                   16384 # Size of shared memory per shader core (default 16kB)
-gpgpu_shmem_size                   49152 # Size of shared memory per shader core (default 16kB)
-gpgpu_shmem_size_PrefL1                16384 # Size of shared memory per shader core (default 16kB)
-gpgpu_shmem_size_PrefShared                16384 # Size of shared memory per shader core (default 16kB)
-gpgpu_shmem_num_banks                   32 # Number of banks in the shared memory in each shader core (default 16)
-gpgpu_shmem_limited_broadcast                    0 # Limit shared memory to do one broadcast per cycle (default on)
-gpgpu_shmem_warp_parts                    1 # Number of portions a warp is divided into for shared memory bank conflict check 
-gpgpu_warpdistro_shader                   -1 # Specify which shader core to collect the warp size distribution from
-gpgpu_warp_issue_shader                    0 # Specify which shader core to collect the warp issue distribution from
-gpgpu_local_mem_map                    1 # Mapping from local memory space address to simulated GPU physical address space (default = enabled)
-gpgpu_num_reg_banks                   16 # Number of register banks (default = 8)
-gpgpu_reg_bank_use_warp_id                    0 # Use warp ID in mapping registers to banks (default = off)
-gpgpu_operand_collector_num_units_sp                    6 # number of collector units (default = 4)
-gpgpu_operand_collector_num_units_sfu                    8 # number of collector units (default = 4)
-gpgpu_operand_collector_num_units_mem                    2 # number of collector units (default = 2)
-gpgpu_operand_collector_num_units_gen                    0 # number of collector units (default = 0)
-gpgpu_operand_collector_num_in_ports_sp                    2 # number of collector unit in ports (default = 1)
-gpgpu_operand_collector_num_in_ports_sfu                    1 # number of collector unit in ports (default = 1)
-gpgpu_operand_collector_num_in_ports_mem                    1 # number of collector unit in ports (default = 1)
-gpgpu_operand_collector_num_in_ports_gen                    0 # number of collector unit in ports (default = 0)
-gpgpu_operand_collector_num_out_ports_sp                    2 # number of collector unit in ports (default = 1)
-gpgpu_operand_collector_num_out_ports_sfu                    1 # number of collector unit in ports (default = 1)
-gpgpu_operand_collector_num_out_ports_mem                    1 # number of collector unit in ports (default = 1)
-gpgpu_operand_collector_num_out_ports_gen                    0 # number of collector unit in ports (default = 0)
-gpgpu_coalesce_arch                   13 # Coalescing arch (default = 13, anything else is off for now)
-gpgpu_num_sched_per_core                    2 # Number of warp schedulers per core
-gpgpu_max_insn_issue_per_warp                    1 # Max number of instructions that can be issued per warp in one cycle by scheduler
-gpgpu_simt_core_sim_order                    1 # Select the simulation order of cores in a cluster (0=Fix, 1=Round-Robin)
-gpgpu_pipeline_widths        2,1,1,2,1,1,2 # Pipeline widths ID_OC_SP,ID_OC_SFU,ID_OC_MEM,OC_EX_SP,OC_EX_SFU,OC_EX_MEM,EX_WB
-gpgpu_num_sp_units                     2 # Number of SP units (default=1)
-gpgpu_num_sfu_units                    1 # Number of SF units (default=1)
-gpgpu_num_mem_units                    1 # Number if ldst units (default=1) WARNING: not hooked up to anything
-gpgpu_scheduler                      lrr # Scheduler configuration: < lrr | gto | two_level_active > If two_level_active:<num_active_warps>:<inner_prioritization>:<outer_prioritization>For complete list of prioritization values see shader.h enum scheduler_prioritization_typeDefault: gto
-gpgpu_dram_scheduler                    1 # 0 = fifo, 1 = FR-FCFS (defaul)
-gpgpu_dram_partition_queues              8:8:8:8 # i2$:$2d:d2$:$2i
-l2_ideal                               0 # Use a ideal L2 cache that always hit
-gpgpu_cache:dl2     64:128:8,L:B:m:W,A:32:4,4:0,32 # unified banked L2 data cache config  {<nsets>:<bsize>:<assoc>,<rep>:<wr>:<alloc>:<wr_alloc>,<mshr>:<N>:<merge>,<mq>}
-gpgpu_cache:dl2_texture_only                    0 # L2 cache used for texture only
-gpgpu_n_mem                            6 # number of memory modules (e.g. memory controllers) in gpu
-gpgpu_n_sub_partition_per_mchannel                    2 # number of memory subpartition in each memory module
-gpgpu_n_mem_per_ctrlr                    2 # number of memory chips per memory controller
-gpgpu_memlatency_stat                   14 # track and display latency statistics 0x2 enables MC, 0x4 enables queue logs
-gpgpu_frfcfs_dram_sched_queue_size                   16 # 0 = unlimited (default); # entries per chip
-gpgpu_dram_return_queue_size                  116 # 0 = unlimited (default); # entries per chip
-gpgpu_dram_buswidth                    4 # default = 4 bytes (8 bytes per cycle at DDR)
-gpgpu_dram_burst_length                    8 # Burst length of each DRAM request (default = 4 data bus cycle)
-dram_data_command_freq_ratio                    4 # Frequency ratio between DRAM data bus and command bus (default = 2 times, i.e. DDR)
-gpgpu_dram_timing_opt nbk=16:CCD=2:RRD=6:RCD=12:RAS=28:RP=12:RC=40: CL=12:WL=4:CDLR=5:WR=12:nbkgrp=4:CCDL=3:RTPL=2 # DRAM timing parameters = {nbk:tCCD:tRRD:tRCD:tRAS:tRP:tRC:CL:WL:tCDLR:tWR:nbkgrp:tCCDL:tRTPL}
-rop_latency                          120 # ROP queue latency (default 85)
-dram_latency                         100 # DRAM latency (default 30)
-gpgpu_mem_addr_mapping dramid@8;00000000.00000000.00000000.00000000.0000RRRR.RRRRRRRR.BBBCCCCB.CCSSSSSS # mapping memory address to dram model {dramid@<start bit>;<memory address map>}
-gpgpu_mem_addr_test                    0 # run sweep test to check address mapping for aliased address
-gpgpu_mem_address_mask                    1 # 0 = old addressing mask, 1 = new addressing mask, 2 = new add. mask + flipped bank sel and chip sel bits
-gpuwattch_xml_file  gpuwattch_gtx480.xml # GPUWattch XML file
-power_simulation_enabled                    1 # Turn on power simulator (1=On, 0=Off)
-power_per_cycle_dump                    0 # Dump detailed power output each cycle
-power_trace_enabled                    0 # produce a file for the power trace (1=On, 0=Off)
-power_trace_zlevel                     6 # Compression level of the power trace output log (0=no comp, 9=highest)
-steady_power_levels_enabled                    0 # produce a file for the steady power levels (1=On, 0=Off)
-steady_state_definition                  8:4 # allowed deviation:number of samples
-gpgpu_max_cycle                        0 # terminates gpu simulation early (0 = no limit)
-gpgpu_max_insn                         0 # terminates gpu simulation early (0 = no limit)
-gpgpu_max_cta                          0 # terminates gpu simulation early (0 = no limit)
-gpgpu_runtime_stat                   500 # display runtime statistics such as dram utilization {<freq>:<flag>}
-liveness_message_freq                    1 # Minimum number of seconds between simulation liveness messages (0 = always print)
-gpgpu_flush_l1_cache                    0 # Flush L1 cache at the end of each kernel call
-gpgpu_flush_l2_cache                    0 # Flush L2 cache at the end of each kernel call
-gpgpu_deadlock_detect                    1 # Stop the simulation at deadlock (1=on (default), 0=off)
-gpgpu_ptx_instruction_classification                    0 # if enabled will classify ptx instruction types per kernel (Max 255 kernels now)
-gpgpu_ptx_sim_mode                     0 # Select between Performance (default) or Functional simulation (1)
-gpgpu_clock_domains 700.0:700.0:700.0:924.0 # Clock Domain Frequencies in MhZ {<Core Clock>:<ICNT Clock>:<L2 Clock>:<DRAM Clock>}
-gpgpu_max_concurrent_kernel                    8 # maximum kernels that can run concurrently on GPU
-gpgpu_cflog_interval                    0 # Interval between each snapshot in control flow logger
-visualizer_enabled                     0 # Turn on visualizer output (1=On, 0=Off)
-visualizer_outputfile                 NULL # Specifies the output log file for visualizer
-visualizer_zlevel                      6 # Compression level of the visualizer output log (0=no comp, 9=highest)
-trace_enabled                          0 # Turn on traces
-trace_components                    none # comma seperated list of traces to enable. Complete list found in trace_streams.tup. Default none
-trace_sampling_core                    0 # The core which is printed using CORE_DPRINTF. Default 0
-trace_sampling_memory_partition                   -1 # The memory partition which is printed using MEMPART_DPRINTF. Default -1 (i.e. all)
-enable_ptx_file_line_stats                    1 # Turn on PTX source line statistic profiling. (1 = On)
-ptx_line_stats_filename gpgpu_inst_stats.txt # Output file for PTX source line statistics.
-save_embedded_ptx                      0 # saves ptx files embedded in binary as <n>.ptx
-keep                                   0 # keep intermediate files created by GPGPU-Sim when interfacing with external programs
-gpgpu_ptx_save_converted_ptxplus                    0 # Saved converted ptxplus to a file
-ptx_opcode_latency_int         4,13,4,5,145 # Opcode latencies for integers <ADD,MAX,MUL,MAD,DIV>Default 1,1,19,25,145
-ptx_opcode_latency_fp          4,13,4,5,39 # Opcode latencies for single precision floating points <ADD,MAX,MUL,MAD,DIV>Default 1,1,1,1,30
-ptx_opcode_latency_dp         8,19,8,8,330 # Opcode latencies for double precision floating points <ADD,MAX,MUL,MAD,DIV>Default 8,8,8,8,335
-ptx_opcode_initiation_int            1,2,2,1,8 # Opcode initiation intervals for integers <ADD,MAX,MUL,MAD,DIV>Default 1,1,4,4,32
-ptx_opcode_initiation_fp            1,2,1,1,4 # Opcode initiation intervals for single precision floating points <ADD,MAX,MUL,MAD,DIV>Default 1,1,1,1,5
-ptx_opcode_initiation_dp         8,16,8,8,130 # Opcode initiation intervals for double precision floating points <ADD,MAX,MUL,MAD,DIV>Default 8,8,8,8,130
DRAM Timing Options:
nbk                                    16 # number of banks
CCD                                     2 # column to column delay
RRD                                     6 # minimal delay between activation of rows in different banks
RCD                                    12 # row to column delay
RAS                                    28 # time needed to activate row
RP                                     12 # time needed to precharge (deactivate) row
RC                                     40 # row cycle time
CDLR                                    5 # switching from write to read (changes tWTR)
WR                                     12 # last data-in to row precharge
CL                                     12 # CAS latency
WL                                      4 # Write latency
nbkgrp                                  4 # number of bank groups
CCDL                                    3 # column to column delay between accesses to different bank groups
RTPL                                    2 # read to precharge delay between accesses to different bank groups
Total number of memory sub partition = 12
addr_dec_mask[CHIP]  = 0000000000000000 	high:64 low:0
addr_dec_mask[BK]    = 000000000000e100 	high:16 low:8
addr_dec_mask[ROW]   = 000000000fff0000 	high:28 low:16
addr_dec_mask[COL]   = 0000000000001eff 	high:13 low:0
addr_dec_mask[BURST] = 000000000000003f 	high:6 low:0
sub_partition_id_mask = 0000000000000100
GPGPU-Sim uArch: clock freqs: 700000000.000000:700000000.000000:700000000.000000:924000000.000000
GPGPU-Sim uArch: clock periods: 0.00000000142857142857:0.00000000142857142857:0.00000000142857142857:0.00000000108225108225
*** Initializing Memory Statistics ***
GPGPU-Sim uArch: interconnect node map (shaderID+MemID to icntID)
GPGPU-Sim uArch: Memory nodes ID start from index: 15
GPGPU-Sim uArch:    0   1   2   3   4
GPGPU-Sim uArch:    5   6   7   8   9
GPGPU-Sim uArch:   10  11  12  13  14
GPGPU-Sim uArch:   15  16  17  18  19
GPGPU-Sim uArch:   20  21  22  23  24
GPGPU-Sim uArch:   25  26
GPGPU-Sim uArch: interconnect node reverse map (icntID to shaderID+MemID)
GPGPU-Sim uArch: Memory nodes start from ID: 15
GPGPU-Sim uArch:    0   1   2   3   4
GPGPU-Sim uArch:    5   6   7   8   9
GPGPU-Sim uArch:   10  11  12  13  14
GPGPU-Sim uArch:   15  16  17  18  19
GPGPU-Sim uArch:   20  21  22  23  24
GPGPU-Sim uArch:   25  26
5dfc00447550946b86c573f0833154d9  /home/xlxie/workdir_Aug1st_2014/bm/rodinia_2.4_sim_1.0/cuda/b+tree.tmp.5/b+tree.out
GPGPU-Sim uArch: performance model initialization complete.
GPGPU-Sim PTX: __cudaRegisterFatBinary, fat_cubin_handle = 1, filename=./kernel/kernel_gpu_cuda_wrapper.cu
self exe links to: /home/xlxie/workdir_Aug1st_2014/bm/rodinia_2.4_sim_1.0/cuda/b+tree.tmp.5/b+tree.out
Running md5sum using "md5sum /home/xlxie/workdir_Aug1st_2014/bm/rodinia_2.4_sim_1.0/cuda/b+tree.tmp.5/b+tree.out "
Running cuobjdump using "$CUDA_INSTALL_PATH/bin/cuobjdump -ptx -elf -sass /home/xlxie/workdir_Aug1st_2014/bm/rodinia_2.4_sim_1.0/cuda/b+tree.tmp.5/b+tree.out > _cuobjdump_complete_output_2C5IZb"
Parsing file _cuobjdump_complete_output_2C5IZb
######### cuobjdump parser ########
## Adding new section PTX
Adding ptx filename: _cuobjdump_1.ptx
Adding arch: sm_20
Adding identifier: ./kernel/kernel_gpu_cuda_wrapper.cu
## Adding new section PTX
Adding ptx filename: _cuobjdump_2.ptx
Adding arch: sm_20
Adding identifier: ./kernel/kernel_gpu_cuda_wrapper_2.cu
## Adding new section PTX
Adding ptx filename: _cuobjdump_3.ptx
Adding arch: sm_20
Adding identifier: ./util/cuda/cuda.cu
Done parsing!!!
GPGPU-Sim PTX: __cudaRegisterFunction findK : hostFun 0x0x405e20, fat_cubin_handle = 1
GPGPU-Sim PTX: instruction assembly for function 'findK'...   done.
GPGPU-Sim PTX: finding reconvergence points for 'findK'...
GPGPU-Sim PTX: Finding dominators for 'findK'...
GPGPU-Sim PTX: Finding immediate dominators for 'findK'...
GPGPU-Sim PTX: Finding postdominators for 'findK'...
GPGPU-Sim PTX: Finding immediate postdominators for 'findK'...
GPGPU-Sim PTX: pre-decoding instructions for 'findK'...
GPGPU-Sim PTX: reconvergence points for findK...
GPGPU-Sim PTX:  1 (potential) branch divergence @  PC=0x038 (_1.ptx:74) @%p1 bra $Lt_0_7682;
GPGPU-Sim PTX:    immediate post dominator      @  PC=0x1e8 (_1.ptx:141) ld.global.u64 %rd32, [%rd12+0];
GPGPU-Sim PTX:  2 (potential) branch divergence @  PC=0x0d0 (_1.ptx:96) @%p3 bra $Lt_0_7938;
GPGPU-Sim PTX:    immediate post dominator      @  PC=0x150 (_1.ptx:116) bar.sync 0;
GPGPU-Sim PTX:  3 (potential) branch divergence @  PC=0x0e8 (_1.ptx:99) @%p4 bra $Lt_0_7938;
GPGPU-Sim PTX:    immediate post dominator      @  PC=0x150 (_1.ptx:116) bar.sync 0;
GPGPU-Sim PTX:  4 (potential) branch divergence @  PC=0x140 (_1.ptx:110) @%p5 bra $Lt_0_7938;
GPGPU-Sim PTX:    immediate post dominator      @  PC=0x150 (_1.ptx:116) bar.sync 0;
GPGPU-Sim PTX:  5 (potential) branch divergence @  PC=0x158 (_1.ptx:117) @!%p2 bra $Lt_0_6402;
GPGPU-Sim PTX:    immediate post dominator      @  PC=0x180 (_1.ptx:125) bar.sync 0;
GPGPU-Sim PTX:  6 (potential) branch divergence @  PC=0x198 (_1.ptx:129) @%p6 bra $Lt_0_5634;
GPGPU-Sim PTX:    immediate post dominator      @  PC=0x1a0 (_1.ptx:130) bra.uni $Lt_0_5122;
GPGPU-Sim PTX:  7 (potential) branch divergence @  PC=0x1a0 (_1.ptx:130) bra.uni $Lt_0_5122;
GPGPU-Sim PTX:    immediate post dominator      @  PC=0x1e8 (_1.ptx:141) ld.global.u64 %rd32, [%rd12+0];
GPGPU-Sim PTX:  8 (potential) branch divergence @  PC=0x220 (_1.ptx:148) @%p7 bra $Lt_0_7170;
GPGPU-Sim PTX:    immediate post dominator      @  PC=0x270 (_1.ptx:161) exit;
GPGPU-Sim PTX: ... end of reconvergence points for findK
GPGPU-Sim PTX: ... done pre-decoding instructions for 'findK'.
GPGPU-Sim PTX: finished parsing EMBEDDED .ptx file _1.ptx
Adding _cuobjdump_1.ptx with cubin handle 1
GPGPU-Sim PTX: extracting embedded .ptx to temporary file "_ptx_Stz1bG"
Running: cat _ptx_Stz1bG | sed 's/.version 1.5/.version 1.4/' | sed 's/, texmode_independent//' | sed 's/\(\.extern \.const\[1\] .b8 \w\+\)\[\]/\1\[1\]/' | sed 's/const\[.\]/const\[0\]/g' > _ptx2_5G9koa
GPGPU-Sim PTX: generating ptxinfo using "$CUDA_INSTALL_PATH/bin/ptxas --gpu-name=sm_20 -v _ptx2_5G9koa --output-file  /dev/null 2> _ptx_Stz1bGinfo"
GPGPU-Sim PTX: Kernel 'findK' : regs=18, lmem=0, smem=0, cmem=96
GPGPU-Sim PTX: removing ptxinfo using "rm -f _ptx_Stz1bG _ptx2_5G9koa _ptx_Stz1bGinfo"
GPGPU-Sim PTX: loading globals with explicit initializers... 
GPGPU-Sim PTX: finished loading globals (0 bytes total).
GPGPU-Sim PTX: loading constants with explicit initializers...  done.
GPGPU-Sim PTX: __cudaRegisterFatBinary, fat_cubin_handle = 2, filename=./kernel/kernel_gpu_cuda_wrapper_2.cu
GPGPU-Sim PTX: __cudaRegisterFunction findRangeK : hostFun 0x0x406530, fat_cubin_handle = 2
GPGPU-Sim PTX: instruction assembly for function 'findRangeK'...   done.
GPGPU-Sim PTX: finding reconvergence points for 'findRangeK'...
GPGPU-Sim PTX: Finding dominators for 'findRangeK'...
GPGPU-Sim PTX: Finding immediate dominators for 'findRangeK'...
GPGPU-Sim PTX: Finding postdominators for 'findRangeK'...
GPGPU-Sim PTX: Finding immediate postdominators for 'findRangeK'...
GPGPU-Sim PTX: pre-decoding instructions for 'findRangeK'...
GPGPU-Sim PTX: reconvergence points for findRangeK...
GPGPU-Sim PTX:  1 (potential) branch divergence @  PC=0x2c0 (_2.ptx:79) @%p1 bra $Lt_0_11778;
GPGPU-Sim PTX:    immediate post dominator      @  PC=0x528 (_2.ptx:174) ld.global.u64 %rd43, [%rd15+0];
GPGPU-Sim PTX:  2 (potential) branch divergence @  PC=0x368 (_2.ptx:103) @%p3 bra $Lt_0_12034;
GPGPU-Sim PTX:    immediate post dominator      @  PC=0x3c8 (_2.ptx:119) ld.global.s32 %r8, [%rd14+0];
GPGPU-Sim PTX:  3 (potential) branch divergence @  PC=0x380 (_2.ptx:106) @%p4 bra $Lt_0_12034;
GPGPU-Sim PTX:    immediate post dominator      @  PC=0x3c8 (_2.ptx:119) ld.global.s32 %r8, [%rd14+0];
GPGPU-Sim PTX:  4 (potential) branch divergence @  PC=0x3a8 (_2.ptx:111) @%p5 bra $Lt_0_12034;
GPGPU-Sim PTX:    immediate post dominator      @  PC=0x3c8 (_2.ptx:119) ld.global.s32 %r8, [%rd14+0];
GPGPU-Sim PTX:  5 (potential) branch divergence @  PC=0x400 (_2.ptx:126) @%p6 bra $Lt_0_12546;
GPGPU-Sim PTX:    immediate post dominator      @  PC=0x460 (_2.ptx:142) bar.sync 0;
GPGPU-Sim PTX:  6 (potential) branch divergence @  PC=0x418 (_2.ptx:129) @%p7 bra $Lt_0_12546;
GPGPU-Sim PTX:    immediate post dominator      @  PC=0x460 (_2.ptx:142) bar.sync 0;
GPGPU-Sim PTX:  7 (potential) branch divergence @  PC=0x440 (_2.ptx:134) @%p8 bra $Lt_0_12546;
GPGPU-Sim PTX:    immediate post dominator      @  PC=0x460 (_2.ptx:142) bar.sync 0;
GPGPU-Sim PTX:  8 (potential) branch divergence @  PC=0x468 (_2.ptx:143) @!%p2 bra $Lt_0_9986;
GPGPU-Sim PTX:    immediate post dominator      @  PC=0x4b0 (_2.ptx:156) bar.sync 0;
GPGPU-Sim PTX:  9 (potential) branch divergence @  PC=0x4c8 (_2.ptx:160) @%p9 bra $Lt_0_8706;
GPGPU-Sim PTX:    immediate post dominator      @  PC=0x4d0 (_2.ptx:161) bra.uni $Lt_0_8194;
GPGPU-Sim PTX: 10 (potential) branch divergence @  PC=0x4d0 (_2.ptx:161) bra.uni $Lt_0_8194;
GPGPU-Sim PTX:    immediate post dominator      @  PC=0x528 (_2.ptx:174) ld.global.u64 %rd43, [%rd15+0];
GPGPU-Sim PTX: 11 (potential) branch divergence @  PC=0x560 (_2.ptx:181) @%p10 bra $Lt_0_10754;
GPGPU-Sim PTX:    immediate post dominator      @  PC=0x588 (_2.ptx:189) bar.sync 0;
GPGPU-Sim PTX: 12 (potential) branch divergence @  PC=0x5c8 (_2.ptx:197) @%p11 bra $Lt_0_11266;
GPGPU-Sim PTX:    immediate post dominator      @  PC=0x618 (_2.ptx:210) exit;
GPGPU-Sim PTX: ... end of reconvergence points for findRangeK
GPGPU-Sim PTX: ... done pre-decoding instructions for 'findRangeK'.
GPGPU-Sim PTX: finished parsing EMBEDDED .ptx file _2.ptx
Adding _cuobjdump_2.ptx with cubin handle 2
GPGPU-Sim PTX: extracting embedded .ptx to temporary file "_ptx_6Jc9jF"
Running: cat _ptx_6Jc9jF | sed 's/.version 1.5/.version 1.4/' | sed 's/, texmode_independent//' | sed 's/\(\.extern \.const\[1\] .b8 \w\+\)\[\]/\1\[1\]/' | sed 's/const\[.\]/const\[0\]/g' > _ptx2_4bZYfa
GPGPU-Sim PTX: generating ptxinfo using "$CUDA_INSTALL_PATH/bin/ptxas --gpu-name=sm_20 -v _ptx2_4bZYfa --output-file  /dev/null 2> _ptx_6Jc9jFinfo"
GPGPU-Sim PTX: Kernel 'findRangeK' : regs=23, lmem=0, smem=0, cmem=120
GPGPU-Sim PTX: removing ptxinfo using "rm -f _ptx_6Jc9jF _ptx2_4bZYfa _ptx_6Jc9jFinfo"
GPGPU-Sim PTX: loading globals with explicit initializers... 
GPGPU-Sim PTX: finished loading globals (0 bytes total).
GPGPU-Sim PTX: loading constants with explicit initializers...  done.
GPGPU-Sim PTX: __cudaRegisterFatBinary, fat_cubin_handle = 3, filename=./util/cuda/cuda.cu
Selecting device 0
Input File: ../../data/b+tree/mil.txt 
Command File: ../../data/b+tree/command.txt 
Command Buffer: 
j 6000 3000
k 10000


Getting input from file ../../data/b+tree/mil.txt...
Transforming data to a GPU suitable structure...
Tree transformation took 0.690094
Waiting for command
> 
******command: j count=6000, rSize=6000 
knodes_elem=3953, knodes_unit_mem=4084, knodes_mem=16144052
GPGPU-Sim: synchronize waiting for inactive GPU simulation
GPGPU-Sim API: Stream Manager State
GPGPU-Sim: detected inactive GPU simulation thread
# of blocks = 6000, # of threads/block = 508 (ensure that device can handle)

GPGPU-Sim PTX: cudaLaunch for 0x0x406530 (mode=performance simulation) on stream 0
GPGPU-Sim PTX: pushing kernel 'findRangeK' to stream 0, gridDim= (6000,1,1) blockDim = (508,1,1) 
kernel 'findRangeK' transfer to GPU hardware scheduler
GPGPU-Sim uArch: Shader 1 bind to kernel 1 'findRangeK'
GPGPU-Sim uArch: CTA/core = 2, limited by: regs
GPGPU-Sim uArch: core:  1, cta: 0 initialized @(1,0)
GPGPU-Sim uArch: Shader 2 bind to kernel 1 'findRangeK'
GPGPU-Sim uArch: core:  2, cta: 0 initialized @(1,0)
GPGPU-Sim uArch: Shader 3 bind to kernel 1 'findRangeK'
GPGPU-Sim uArch: core:  3, cta: 0 initialized @(1,0)
GPGPU-Sim uArch: Shader 4 bind to kernel 1 'findRangeK'
GPGPU-Sim uArch: core:  4, cta: 0 initialized @(1,0)
GPGPU-Sim uArch: Shader 5 bind to kernel 1 'findRangeK'
GPGPU-Sim uArch: core:  5, cta: 0 initialized @(1,0)
GPGPU-Sim uArch: Shader 6 bind to kernel 1 'findRangeK'
GPGPU-Sim uArch: core:  6, cta: 0 initialized @(1,0)
GPGPU-Sim uArch: Shader 7 bind to kernel 1 'findRangeK'
GPGPU-Sim uArch: core:  7, cta: 0 initialized @(1,0)
GPGPU-Sim uArch: Shader 8 bind to kernel 1 'findRangeK'
GPGPU-Sim uArch: core:  8, cta: 0 initialized @(1,0)
GPGPU-Sim uArch: Shader 9 bind to kernel 1 'findRangeK'
GPGPU-Sim uArch: core:  9, cta: 0 initialized @(1,0)
GPGPU-Sim uArch: Shader 10 bind to kernel 1 'findRangeK'
GPGPU-Sim uArch: core: 10, cta: 0 initialized @(1,0)
GPGPU-Sim uArch: Shader 11 bind to kernel 1 'findRangeK'
GPGPU-Sim uArch: core: 11, cta: 0 initialized @(1,0)
GPGPU-Sim uArch: Shader 12 bind to kernel 1 'findRangeK'
GPGPU-Sim uArch: core: 12, cta: 0 initialized @(1,0)
GPGPU-Sim uArch: Shader 13 bind to kernel 1 'findRangeK'
GPGPU-Sim uArch: core: 13, cta: 0 initialized @(1,0)
GPGPU-Sim uArch: Shader 14 bind to kernel 1 'findRangeK'
GPGPU-Sim uArch: core: 14, cta: 0 initialized @(1,0)
GPGPU-Sim uArch: Shader 0 bind to kernel 1 'findRangeK'
GPGPU-Sim uArch: core:  0, cta: 0 initialized @(1,0)
GPGPU-Sim uArch: core:  1, cta: 1 initialized @(2,0)
GPGPU-Sim uArch: core:  2, cta: 1 initialized @(2,0)
GPGPU-Sim uArch: core:  3, cta: 1 initialized @(2,0)
GPGPU-Sim uArch: core:  4, cta: 1 initialized @(2,0)
GPGPU-Sim uArch: core:  5, cta: 1 initialized @(2,0)
GPGPU-Sim uArch: core:  6, cta: 1 initialized @(2,0)
GPGPU-Sim uArch: core:  7, cta: 1 initialized @(2,0)
GPGPU-Sim uArch: core:  8, cta: 1 initialized @(2,0)
GPGPU-Sim uArch: core:  9, cta: 1 initialized @(2,0)
GPGPU-Sim uArch: core: 10, cta: 1 initialized @(2,0)
GPGPU-Sim uArch: core: 11, cta: 1 initialized @(2,0)
GPGPU-Sim uArch: core: 12, cta: 1 initialized @(2,0)
GPGPU-Sim uArch: core: 13, cta: 1 initialized @(2,0)
GPGPU-Sim uArch: core: 14, cta: 1 initialized @(2,0)
GPGPU-Sim uArch: core:  0, cta: 1 initialized @(2,0)
GPGPU-Sim uArch: cycles simulated: 500  inst.: 0 (ipc= 0.0) sim_rate=0 (inst/sec) elapsed = 0:0:00:24 / Thu Aug 14 11:03:24 2014
GPGPU-Sim PTX: 100000 instructions simulated : ctaid=(19,0,0) tid=(91,0,0)
GPGPU-Sim PTX: 200000 instructions simulated : ctaid=(8,0,0) tid=(7,0,0)
GPGPU-Sim uArch: cycles simulated: 1000  inst.: 255476 (ipc=255.5) sim_rate=9462 (inst/sec) elapsed = 0:0:00:27 / Thu Aug 14 11:03:27 2014
GPGPU-Sim PTX: 300000 instructions simulated : ctaid=(8,0,0) tid=(411,0,0)
GPGPU-Sim uArch: cycles simulated: 1500  inst.: 337880 (ipc=225.3) sim_rate=12067 (inst/sec) elapsed = 0:0:00:28 / Thu Aug 14 11:03:28 2014
GPGPU-Sim PTX: 400000 instructions simulated : ctaid=(22,0,0) tid=(63,0,0)
GPGPU-Sim uArch: cycles simulated: 2000  inst.: 426874 (ipc=213.4) sim_rate=14229 (inst/sec) elapsed = 0:0:00:30 / Thu Aug 14 11:03:30 2014
GPGPU-Sim PTX: 500000 instructions simulated : ctaid=(29,0,0) tid=(352,0,0)
GPGPU-Sim uArch: cycles simulated: 2500  inst.: 529708 (ipc=211.9) sim_rate=16553 (inst/sec) elapsed = 0:0:00:32 / Thu Aug 14 11:03:32 2014
GPGPU-Sim PTX: 600000 instructions simulated : ctaid=(6,0,0) tid=(59,0,0)
GPGPU-Sim uArch: cycles simulated: 3000  inst.: 611006 (ipc=203.7) sim_rate=18515 (inst/sec) elapsed = 0:0:00:33 / Thu Aug 14 11:03:33 2014
GPGPU-Sim PTX: 700000 instructions simulated : ctaid=(26,0,0) tid=(265,0,0)
GPGPU-Sim uArch: cycles simulated: 3500  inst.: 686318 (ipc=196.1) sim_rate=20185 (inst/sec) elapsed = 0:0:00:34 / Thu Aug 14 11:03:34 2014
GPGPU-Sim uArch: cycles simulated: 4000  inst.: 760414 (ipc=190.1) sim_rate=21726 (inst/sec) elapsed = 0:0:00:35 / Thu Aug 14 11:03:35 2014
GPGPU-Sim PTX: 800000 instructions simulated : ctaid=(22,0,0) tid=(263,0,0)
GPGPU-Sim uArch: cycles simulated: 4500  inst.: 854936 (ipc=190.0) sim_rate=23106 (inst/sec) elapsed = 0:0:00:37 / Thu Aug 14 11:03:37 2014
GPGPU-Sim PTX: 900000 instructions simulated : ctaid=(1,0,0) tid=(285,0,0)
GPGPU-Sim uArch: cycles simulated: 5000  inst.: 965418 (ipc=193.1) sim_rate=24754 (inst/sec) elapsed = 0:0:00:39 / Thu Aug 14 11:03:39 2014
GPGPU-Sim PTX: 1000000 instructions simulated : ctaid=(11,0,0) tid=(429,0,0)
GPGPU-Sim PTX: 1100000 instructions simulated : ctaid=(29,0,0) tid=(319,0,0)
GPGPU-Sim uArch: cycles simulated: 6000  inst.: 1104679 (ipc=184.1) sim_rate=26943 (inst/sec) elapsed = 0:0:00:41 / Thu Aug 14 11:03:41 2014
GPGPU-Sim PTX: 1200000 instructions simulated : ctaid=(11,0,0) tid=(26,0,0)
GPGPU-Sim uArch: cycles simulated: 6500  inst.: 1157200 (ipc=178.0) sim_rate=26911 (inst/sec) elapsed = 0:0:00:43 / Thu Aug 14 11:03:43 2014
GPGPU-Sim uArch: cycles simulated: 7000  inst.: 1234085 (ipc=176.3) sim_rate=27424 (inst/sec) elapsed = 0:0:00:45 / Thu Aug 14 11:03:45 2014
GPGPU-Sim PTX: 1300000 instructions simulated : ctaid=(5,0,0) tid=(299,0,0)
GPGPU-Sim uArch: cycles simulated: 7500  inst.: 1282118 (ipc=170.9) sim_rate=27872 (inst/sec) elapsed = 0:0:00:46 / Thu Aug 14 11:03:46 2014
GPGPU-Sim uArch: Shader 1 finished CTA #0 (7564,0), 1 CTAs running
GPGPU-Sim uArch: core:  1, cta: 0 initialized @(7565,0)
GPGPU-Sim uArch: Shader 8 finished CTA #0 (7627,0), 1 CTAs running
GPGPU-Sim uArch: core:  8, cta: 0 initialized @(7628,0)
GPGPU-Sim uArch: Shader 6 finished CTA #0 (7639,0), 1 CTAs running
GPGPU-Sim uArch: core:  6, cta: 0 initialized @(7640,0)
GPGPU-Sim uArch: Shader 12 finished CTA #0 (7663,0), 1 CTAs running
GPGPU-Sim uArch: core: 12, cta: 0 initialized @(7664,0)
GPGPU-Sim uArch: Shader 10 finished CTA #0 (7675,0), 1 CTAs running
GPGPU-Sim uArch: core: 10, cta: 0 initialized @(7676,0)
GPGPU-Sim uArch: Shader 0 finished CTA #0 (7681,0), 1 CTAs running
GPGPU-Sim uArch: core:  0, cta: 0 initialized @(7682,0)
GPGPU-Sim uArch: Shader 2 finished CTA #1 (7684,0), 1 CTAs running
GPGPU-Sim uArch: core:  2, cta: 1 initialized @(7685,0)
GPGPU-Sim uArch: Shader 3 finished CTA #0 (7698,0), 1 CTAs running
GPGPU-Sim uArch: core:  3, cta: 0 initialized @(7699,0)
GPGPU-Sim uArch: Shader 7 finished CTA #0 (7709,0), 1 CTAs running
GPGPU-Sim uArch: core:  7, cta: 0 initialized @(7710,0)
GPGPU-Sim uArch: Shader 2 finished CTA #0 (7719,0), 1 CTAs running
GPGPU-Sim uArch: core:  2, cta: 0 initialized @(7720,0)
GPGPU-Sim uArch: Shader 12 finished CTA #1 (7720,0), 1 CTAs running
GPGPU-Sim uArch: core: 12, cta: 1 initialized @(7721,0)
GPGPU-Sim uArch: Shader 3 finished CTA #1 (7723,0), 1 CTAs running
GPGPU-Sim uArch: core:  3, cta: 1 initialized @(7724,0)
GPGPU-Sim uArch: Shader 8 finished CTA #1 (7726,0), 1 CTAs running
GPGPU-Sim uArch: core:  8, cta: 1 initialized @(7727,0)
GPGPU-Sim uArch: Shader 9 finished CTA #1 (7729,0), 1 CTAs running
GPGPU-Sim uArch: core:  9, cta: 1 initialized @(7730,0)
GPGPU-Sim uArch: Shader 4 finished CTA #1 (7733,0), 1 CTAs running
GPGPU-Sim uArch: core:  4, cta: 1 initialized @(7734,0)
GPGPU-Sim uArch: Shader 4 finished CTA #0 (7772,0), 1 CTAs running
GPGPU-Sim uArch: core:  4, cta: 0 initialized @(7773,0)
GPGPU-Sim uArch: Shader 6 finished CTA #1 (7783,0), 1 CTAs running
GPGPU-Sim uArch: core:  6, cta: 1 initialized @(7784,0)
GPGPU-Sim uArch: Shader 14 finished CTA #0 (7795,0), 1 CTAs running
GPGPU-Sim uArch: core: 14, cta: 0 initialized @(7796,0)
GPGPU-Sim PTX: 1400000 instructions simulated : ctaid=(41,0,0) tid=(454,0,0)
GPGPU-Sim uArch: Shader 0 finished CTA #1 (7803,0), 1 CTAs running
GPGPU-Sim uArch: core:  0, cta: 1 initialized @(7804,0)
GPGPU-Sim uArch: Shader 10 finished CTA #1 (7813,0), 1 CTAs running
GPGPU-Sim uArch: core: 10, cta: 1 initialized @(7814,0)
GPGPU-Sim uArch: Shader 9 finished CTA #0 (7821,0), 1 CTAs running
GPGPU-Sim uArch: core:  9, cta: 0 initialized @(7822,0)
GPGPU-Sim uArch: Shader 1 finished CTA #1 (7829,0), 1 CTAs running
GPGPU-Sim uArch: core:  1, cta: 1 initialized @(7830,0)
GPGPU-Sim uArch: Shader 7 finished CTA #1 (7854,0), 1 CTAs running
GPGPU-Sim uArch: core:  7, cta: 1 initialized @(7855,0)
GPGPU-Sim uArch: Shader 11 finished CTA #1 (7868,0), 1 CTAs running
GPGPU-Sim uArch: core: 11, cta: 1 initialized @(7869,0)
GPGPU-Sim uArch: Shader 14 finished CTA #1 (7910,0), 1 CTAs running
GPGPU-Sim uArch: core: 14, cta: 1 initialized @(7911,0)
GPGPU-Sim PTX: 1500000 instructions simulated : ctaid=(54,0,0) tid=(379,0,0)
GPGPU-Sim uArch: Shader 13 finished CTA #1 (7949,0), 1 CTAs running
GPGPU-Sim uArch: core: 13, cta: 1 initialized @(7950,0)
GPGPU-Sim uArch: Shader 13 finished CTA #0 (7974,0), 1 CTAs running
GPGPU-Sim uArch: core: 13, cta: 0 initialized @(7975,0)
GPGPU-Sim uArch: cycles simulated: 8000  inst.: 1488060 (ipc=186.0) sim_rate=30368 (inst/sec) elapsed = 0:0:00:49 / Thu Aug 14 11:03:49 2014
GPGPU-Sim uArch: Shader 5 finished CTA #1 (8015,0), 1 CTAs running
GPGPU-Sim uArch: core:  5, cta: 1 initialized @(8016,0)
GPGPU-Sim uArch: Shader 5 finished CTA #0 (8040,0), 1 CTAs running
GPGPU-Sim uArch: core:  5, cta: 0 initialized @(8041,0)
GPGPU-Sim PTX: 1600000 instructions simulated : ctaid=(57,0,0) tid=(198,0,0)
GPGPU-Sim uArch: Shader 11 finished CTA #0 (8107,0), 1 CTAs running
GPGPU-Sim uArch: core: 11, cta: 0 initialized @(8108,0)
GPGPU-Sim PTX: 1700000 instructions simulated : ctaid=(42,0,0) tid=(342,0,0)
GPGPU-Sim uArch: cycles simulated: 8500  inst.: 1723720 (ipc=202.8) sim_rate=33148 (inst/sec) elapsed = 0:0:00:52 / Thu Aug 14 11:03:52 2014
GPGPU-Sim PTX: 1800000 instructions simulated : ctaid=(57,0,0) tid=(363,0,0)
GPGPU-Sim PTX: 1900000 instructions simulated : ctaid=(35,0,0) tid=(381,0,0)
GPGPU-Sim uArch: cycles simulated: 9000  inst.: 1915834 (ipc=212.9) sim_rate=35478 (inst/sec) elapsed = 0:0:00:54 / Thu Aug 14 11:03:54 2014
GPGPU-Sim PTX: 2000000 instructions simulated : ctaid=(34,0,0) tid=(278,0,0)
GPGPU-Sim uArch: cycles simulated: 9500  inst.: 1990648 (ipc=209.5) sim_rate=36193 (inst/sec) elapsed = 0:0:00:55 / Thu Aug 14 11:03:55 2014
GPGPU-Sim PTX: 2100000 instructions simulated : ctaid=(45,0,0) tid=(58,0,0)
GPGPU-Sim uArch: cycles simulated: 10000  inst.: 2117364 (ipc=211.7) sim_rate=36506 (inst/sec) elapsed = 0:0:00:58 / Thu Aug 14 11:03:58 2014
GPGPU-Sim PTX: 2200000 instructions simulated : ctaid=(42,0,0) tid=(400,0,0)
GPGPU-Sim PTX: 2300000 instructions simulated : ctaid=(54,0,0) tid=(387,0,0)
GPGPU-Sim uArch: cycles simulated: 10500  inst.: 2242267 (ipc=213.5) sim_rate=38004 (inst/sec) elapsed = 0:0:00:59 / Thu Aug 14 11:03:59 2014
GPGPU-Sim uArch: cycles simulated: 11000  inst.: 2312240 (ipc=210.2) sim_rate=38537 (inst/sec) elapsed = 0:0:01:00 / Thu Aug 14 11:04:00 2014
GPGPU-Sim PTX: 2400000 instructions simulated : ctaid=(45,0,0) tid=(416,0,0)
GPGPU-Sim uArch: cycles simulated: 11500  inst.: 2405663 (ipc=209.2) sim_rate=38801 (inst/sec) elapsed = 0:0:01:02 / Thu Aug 14 11:04:02 2014
GPGPU-Sim PTX: 2500000 instructions simulated : ctaid=(52,0,0) tid=(381,0,0)
GPGPU-Sim uArch: cycles simulated: 12000  inst.: 2475972 (ipc=206.3) sim_rate=38687 (inst/sec) elapsed = 0:0:01:04 / Thu Aug 14 11:04:04 2014
GPGPU-Sim PTX: 2600000 instructions simulated : ctaid=(31,0,0) tid=(404,0,0)
GPGPU-Sim uArch: cycles simulated: 12500  inst.: 2544807 (ipc=203.6) sim_rate=39150 (inst/sec) elapsed = 0:0:01:05 / Thu Aug 14 11:04:05 2014
GPGPU-Sim uArch: Shader 12 finished CTA #0 (12900,0), 1 CTAs running
GPGPU-Sim uArch: core: 12, cta: 0 initialized @(12901,0)
GPGPU-Sim uArch: Shader 3 finished CTA #0 (12902,0), 1 CTAs running
GPGPU-Sim uArch: core:  3, cta: 0 initialized @(12903,0)
GPGPU-Sim uArch: Shader 2 finished CTA #1 (12904,0), 1 CTAs running
GPGPU-Sim uArch: core:  2, cta: 1 initialized @(12905,0)
GPGPU-Sim uArch: Shader 6 finished CTA #0 (12906,0), 1 CTAs running
GPGPU-Sim uArch: core:  6, cta: 0 initialized @(12907,0)
GPGPU-Sim uArch: Shader 14 finished CTA #1 (12914,0), 1 CTAs running
GPGPU-Sim uArch: core: 14, cta: 1 initialized @(12915,0)
GPGPU-Sim uArch: Shader 12 finished CTA #1 (12917,0), 1 CTAs running
GPGPU-Sim uArch: core: 12, cta: 1 initialized @(12918,0)
GPGPU-Sim uArch: Shader 1 finished CTA #0 (12919,0), 1 CTAs running
GPGPU-Sim uArch: core:  1, cta: 0 initialized @(12920,0)
GPGPU-Sim uArch: Shader 6 finished CTA #1 (12923,0), 1 CTAs running
GPGPU-Sim uArch: core:  6, cta: 1 initialized @(12924,0)
GPGPU-Sim uArch: Shader 3 finished CTA #1 (12937,0), 1 CTAs running
GPGPU-Sim uArch: core:  3, cta: 1 initialized @(12938,0)
GPGPU-Sim uArch: Shader 8 finished CTA #0 (12984,0), 1 CTAs running
GPGPU-Sim uArch: core:  8, cta: 0 initialized @(12985,0)
GPGPU-Sim uArch: cycles simulated: 13000  inst.: 2605691 (ipc=200.4) sim_rate=38890 (inst/sec) elapsed = 0:0:01:07 / Thu Aug 14 11:04:07 2014
GPGPU-Sim PTX: 2700000 instructions simulated : ctaid=(64,0,0) tid=(276,0,0)
GPGPU-Sim uArch: Shader 2 finished CTA #0 (13163,0), 1 CTAs running
GPGPU-Sim uArch: core:  2, cta: 0 initialized @(13164,0)
GPGPU-Sim uArch: Shader 4 finished CTA #1 (13205,0), 1 CTAs running
GPGPU-Sim uArch: core:  4, cta: 1 initialized @(13206,0)
GPGPU-Sim uArch: Shader 14 finished CTA #0 (13209,0), 1 CTAs running
GPGPU-Sim uArch: core: 14, cta: 0 initialized @(13210,0)
GPGPU-Sim uArch: Shader 9 finished CTA #1 (13214,0), 1 CTAs running
GPGPU-Sim uArch: core:  9, cta: 1 initialized @(13215,0)
GPGPU-Sim uArch: Shader 11 finished CTA #1 (13215,0), 1 CTAs running
GPGPU-Sim uArch: core: 11, cta: 1 initialized @(13216,0)
GPGPU-Sim uArch: Shader 13 finished CTA #0 (13217,0), 1 CTAs running
GPGPU-Sim uArch: core: 13, cta: 0 initialized @(13218,0)
GPGPU-Sim uArch: Shader 4 finished CTA #0 (13222,0), 1 CTAs running
GPGPU-Sim uArch: core:  4, cta: 0 initialized @(13223,0)
GPGPU-Sim uArch: Shader 11 finished CTA #0 (13232,0), 1 CTAs running
GPGPU-Sim uArch: core: 11, cta: 0 initialized @(13233,0)
GPGPU-Sim uArch: Shader 13 finished CTA #1 (13234,0), 1 CTAs running
GPGPU-Sim uArch: core: 13, cta: 1 initialized @(13235,0)
GPGPU-Sim PTX: 2800000 instructions simulated : ctaid=(74,0,0) tid=(75,0,0)
GPGPU-Sim uArch: Shader 8 finished CTA #1 (13329,0), 1 CTAs running
GPGPU-Sim uArch: core:  8, cta: 1 initialized @(13330,0)
GPGPU-Sim uArch: Shader 5 finished CTA #0 (13334,0), 1 CTAs running
GPGPU-Sim uArch: core:  5, cta: 0 initialized @(13335,0)
GPGPU-Sim uArch: Shader 10 finished CTA #1 (13370,0), 1 CTAs running
GPGPU-Sim uArch: core: 10, cta: 1 initialized @(13371,0)
GPGPU-Sim uArch: Shader 5 finished CTA #1 (13400,0), 1 CTAs running
GPGPU-Sim uArch: core:  5, cta: 1 initialized @(13401,0)
GPGPU-Sim uArch: Shader 9 finished CTA #0 (13429,0), 1 CTAs running
GPGPU-Sim uArch: Shader 10 finished CTA #0 (13429,0), 1 CTAs running
GPGPU-Sim uArch: core:  9, cta: 0 initialized @(13430,0)
GPGPU-Sim uArch: core: 10, cta: 0 initialized @(13430,0)
GPGPU-Sim uArch: Shader 7 finished CTA #0 (13440,0), 1 CTAs running
GPGPU-Sim uArch: core:  7, cta: 0 initialized @(13441,0)
GPGPU-Sim PTX: 2900000 instructions simulated : ctaid=(82,0,0) tid=(445,0,0)
GPGPU-Sim uArch: cycles simulated: 13500  inst.: 2815257 (ipc=208.5) sim_rate=39651 (inst/sec) elapsed = 0:0:01:11 / Thu Aug 14 11:04:11 2014
GPGPU-Sim uArch: Shader 0 finished CTA #1 (13550,0), 1 CTAs running
GPGPU-Sim uArch: core:  0, cta: 1 initialized @(13551,0)
GPGPU-Sim uArch: Shader 1 finished CTA #1 (13560,0), 1 CTAs running
GPGPU-Sim uArch: core:  1, cta: 1 initialized @(13561,0)
GPGPU-Sim uArch: Shader 7 finished CTA #1 (13562,0), 1 CTAs running
GPGPU-Sim uArch: core:  7, cta: 1 initialized @(13563,0)
GPGPU-Sim uArch: Shader 0 finished CTA #0 (13585,0), 1 CTAs running
GPGPU-Sim uArch: core:  0, cta: 0 initialized @(13586,0)
GPGPU-Sim PTX: 3000000 instructions simulated : ctaid=(70,0,0) tid=(161,0,0)
GPGPU-Sim PTX: 3100000 instructions simulated : ctaid=(89,0,0) tid=(300,0,0)
GPGPU-Sim uArch: cycles simulated: 14000  inst.: 3077698 (ipc=219.8) sim_rate=41590 (inst/sec) elapsed = 0:0:01:14 / Thu Aug 14 11:04:14 2014
GPGPU-Sim PTX: 3200000 instructions simulated : ctaid=(87,0,0) tid=(478,0,0)
GPGPU-Sim PTX: 3300000 instructions simulated : ctaid=(63,0,0) tid=(68,0,0)
GPGPU-Sim uArch: cycles simulated: 14500  inst.: 3223820 (ipc=222.3) sim_rate=42418 (inst/sec) elapsed = 0:0:01:16 / Thu Aug 14 11:04:16 2014
GPGPU-Sim PTX: 3400000 instructions simulated : ctaid=(84,0,0) tid=(343,0,0)
GPGPU-Sim uArch: cycles simulated: 15000  inst.: 3303597 (ipc=220.2) sim_rate=42903 (inst/sec) elapsed = 0:0:01:17 / Thu Aug 14 11:04:17 2014
GPGPU-Sim PTX: 3500000 instructions simulated : ctaid=(76,0,0) tid=(188,0,0)
GPGPU-Sim uArch: cycles simulated: 15500  inst.: 3452044 (ipc=222.7) sim_rate=43150 (inst/sec) elapsed = 0:0:01:20 / Thu Aug 14 11:04:20 2014
GPGPU-Sim PTX: 3600000 instructions simulated : ctaid=(81,0,0) tid=(502,0,0)
GPGPU-Sim uArch: cycles simulated: 16000  inst.: 3569223 (ipc=223.1) sim_rate=43527 (inst/sec) elapsed = 0:0:01:22 / Thu Aug 14 11:04:22 2014
GPGPU-Sim PTX: 3700000 instructions simulated : ctaid=(60,0,0) tid=(182,0,0)
GPGPU-Sim uArch: cycles simulated: 16500  inst.: 3658992 (ipc=221.8) sim_rate=43559 (inst/sec) elapsed = 0:0:01:24 / Thu Aug 14 11:04:24 2014
GPGPU-Sim PTX: 3800000 instructions simulated : ctaid=(76,0,0) tid=(194,0,0)
GPGPU-Sim uArch: cycles simulated: 17000  inst.: 3728010 (ipc=219.3) sim_rate=43348 (inst/sec) elapsed = 0:0:01:26 / Thu Aug 14 11:04:26 2014
GPGPU-Sim PTX: 3900000 instructions simulated : ctaid=(77,0,0) tid=(359,0,0)
GPGPU-Sim uArch: cycles simulated: 17500  inst.: 3793976 (ipc=216.8) sim_rate=43113 (inst/sec) elapsed = 0:0:01:28 / Thu Aug 14 11:04:28 2014
GPGPU-Sim uArch: cycles simulated: 18000  inst.: 3853939 (ipc=214.1) sim_rate=42821 (inst/sec) elapsed = 0:0:01:30 / Thu Aug 14 11:04:30 2014
GPGPU-Sim uArch: Shader 12 finished CTA #0 (18153,0), 1 CTAs running
GPGPU-Sim uArch: core: 12, cta: 0 initialized @(18154,0)
GPGPU-Sim PTX: 4000000 instructions simulated : ctaid=(85,0,0) tid=(58,0,0)
GPGPU-Sim uArch: Shader 12 finished CTA #1 (18291,0), 1 CTAs running
GPGPU-Sim uArch: core: 12, cta: 1 initialized @(18292,0)
GPGPU-Sim uArch: Shader 3 finished CTA #0 (18300,0), 1 CTAs running
GPGPU-Sim uArch: core:  3, cta: 0 initialized @(18301,0)
GPGPU-Sim uArch: Shader 6 finished CTA #0 (18313,0), 1 CTAs running
GPGPU-Sim uArch: core:  6, cta: 0 initialized @(18314,0)
GPGPU-Sim uArch: Shader 11 finished CTA #0 (18318,0), 1 CTAs running
GPGPU-Sim uArch: core: 11, cta: 0 initialized @(18319,0)
GPGPU-Sim uArch: Shader 14 finished CTA #0 (18321,0), 1 CTAs running
GPGPU-Sim uArch: core: 14, cta: 0 initialized @(18322,0)
GPGPU-Sim uArch: Shader 9 finished CTA #1 (18324,0), 1 CTAs running
GPGPU-Sim uArch: core:  9, cta: 1 initialized @(18325,0)
GPGPU-Sim uArch: Shader 4 finished CTA #1 (18330,0), 1 CTAs running
GPGPU-Sim uArch: core:  4, cta: 1 initialized @(18331,0)
GPGPU-Sim uArch: Shader 8 finished CTA #1 (18337,0), 1 CTAs running
GPGPU-Sim uArch: core:  8, cta: 1 initialized @(18338,0)
GPGPU-Sim uArch: Shader 0 finished CTA #0 (18364,0), 1 CTAs running
GPGPU-Sim uArch: core:  0, cta: 0 initialized @(18365,0)
GPGPU-Sim uArch: Shader 8 finished CTA #0 (18372,0), 1 CTAs running
GPGPU-Sim uArch: core:  8, cta: 0 initialized @(18373,0)
GPGPU-Sim uArch: Shader 4 finished CTA #0 (18395,0), 1 CTAs running
GPGPU-Sim uArch: core:  4, cta: 0 initialized @(18396,0)
GPGPU-Sim uArch: Shader 5 finished CTA #0 (18449,0), 1 CTAs running
GPGPU-Sim uArch: core:  5, cta: 0 initialized @(18450,0)
GPGPU-Sim uArch: Shader 2 finished CTA #0 (18459,0), 1 CTAs running
GPGPU-Sim uArch: core:  2, cta: 0 initialized @(18460,0)
GPGPU-Sim uArch: cycles simulated: 18500  inst.: 3967556 (ipc=214.5) sim_rate=42661 (inst/sec) elapsed = 0:0:01:33 / Thu Aug 14 11:04:33 2014
GPGPU-Sim PTX: 4100000 instructions simulated : ctaid=(91,0,0) tid=(144,0,0)
GPGPU-Sim uArch: Shader 5 finished CTA #1 (18524,0), 1 CTAs running
GPGPU-Sim uArch: core:  5, cta: 1 initialized @(18525,0)
GPGPU-Sim uArch: Shader 0 finished CTA #1 (18565,0), 1 CTAs running
GPGPU-Sim uArch: core:  0, cta: 1 initialized @(18566,0)
GPGPU-Sim uArch: Shader 14 finished CTA #1 (18566,0), 1 CTAs running
GPGPU-Sim uArch: core: 14, cta: 1 initialized @(18567,0)
GPGPU-Sim uArch: Shader 3 finished CTA #1 (18568,0), 1 CTAs running
GPGPU-Sim uArch: core:  3, cta: 1 initialized @(18569,0)
GPGPU-Sim uArch: Shader 10 finished CTA #0 (18575,0), 1 CTAs running
GPGPU-Sim uArch: core: 10, cta: 0 initialized @(18576,0)
GPGPU-Sim uArch: Shader 1 finished CTA #1 (18581,0), 1 CTAs running
GPGPU-Sim uArch: core:  1, cta: 1 initialized @(18582,0)
GPGPU-Sim uArch: Shader 10 finished CTA #1 (18610,0), 1 CTAs running
GPGPU-Sim uArch: core: 10, cta: 1 initialized @(18611,0)
GPGPU-Sim uArch: Shader 11 finished CTA #1 (18612,0), 1 CTAs running
GPGPU-Sim uArch: core: 11, cta: 1 initialized @(18613,0)
GPGPU-Sim uArch: Shader 2 finished CTA #1 (18619,0), 1 CTAs running
GPGPU-Sim uArch: core:  2, cta: 1 initialized @(18620,0)
GPGPU-Sim PTX: 4200000 instructions simulated : ctaid=(94,0,0) tid=(9,0,0)
GPGPU-Sim uArch: Shader 13 finished CTA #0 (18705,0), 1 CTAs running
GPGPU-Sim uArch: core: 13, cta: 0 initialized @(18706,0)
GPGPU-Sim uArch: Shader 13 finished CTA #1 (18722,0), 1 CTAs running
GPGPU-Sim uArch: core: 13, cta: 1 initialized @(18723,0)
GPGPU-Sim uArch: Shader 6 finished CTA #1 (18830,0), 1 CTAs running
GPGPU-Sim uArch: core:  6, cta: 1 initialized @(18831,0)
GPGPU-Sim PTX: 4300000 instructions simulated : ctaid=(103,0,0) tid=(36,0,0)
GPGPU-Sim uArch: cycles simulated: 19000  inst.: 4232302 (ipc=222.8) sim_rate=43631 (inst/sec) elapsed = 0:0:01:37 / Thu Aug 14 11:04:37 2014
GPGPU-Sim uArch: Shader 7 finished CTA #0 (19023,0), 1 CTAs running
GPGPU-Sim uArch: core:  7, cta: 0 initialized @(19024,0)
GPGPU-Sim PTX: 4400000 instructions simulated : ctaid=(116,0,0) tid=(12,0,0)
GPGPU-Sim uArch: Shader 7 finished CTA #1 (19082,0), 1 CTAs running
GPGPU-Sim uArch: core:  7, cta: 1 initialized @(19083,0)
GPGPU-Sim uArch: Shader 1 finished CTA #0 (19135,0), 1 CTAs running
GPGPU-Sim uArch: core:  1, cta: 0 initialized @(19136,0)
GPGPU-Sim PTX: 4500000 instructions simulated : ctaid=(97,0,0) tid=(320,0,0)
GPGPU-Sim uArch: Shader 9 finished CTA #0 (19401,0), 1 CTAs running
GPGPU-Sim uArch: core:  9, cta: 0 initialized @(19402,0)
GPGPU-Sim uArch: cycles simulated: 19500  inst.: 4432948 (ipc=227.3) sim_rate=44329 (inst/sec) elapsed = 0:0:01:40 / Thu Aug 14 11:04:40 2014
GPGPU-Sim PTX: 4600000 instructions simulated : ctaid=(112,0,0) tid=(270,0,0)
GPGPU-Sim uArch: cycles simulated: 20000  inst.: 4548037 (ipc=227.4) sim_rate=44588 (inst/sec) elapsed = 0:0:01:42 / Thu Aug 14 11:04:42 2014
GPGPU-Sim PTX: 4700000 instructions simulated : ctaid=(96,0,0) tid=(360,0,0)
GPGPU-Sim PTX: 4800000 instructions simulated : ctaid=(98,0,0) tid=(452,0,0)
GPGPU-Sim uArch: cycles simulated: 20500  inst.: 4664870 (ipc=227.6) sim_rate=44427 (inst/sec) elapsed = 0:0:01:45 / Thu Aug 14 11:04:45 2014
GPGPU-Sim PTX: 4900000 instructions simulated : ctaid=(110,0,0) tid=(474,0,0)
GPGPU-Sim uArch: cycles simulated: 21000  inst.: 4801562 (ipc=228.6) sim_rate=44874 (inst/sec) elapsed = 0:0:01:47 / Thu Aug 14 11:04:47 2014
GPGPU-Sim PTX: 5000000 instructions simulated : ctaid=(118,0,0) tid=(111,0,0)
GPGPU-Sim uArch: cycles simulated: 21500  inst.: 4905906 (ipc=228.2) sim_rate=45008 (inst/sec) elapsed = 0:0:01:49 / Thu Aug 14 11:04:49 2014
GPGPU-Sim PTX: 5100000 instructions simulated : ctaid=(92,0,0) tid=(344,0,0)
GPGPU-Sim uArch: cycles simulated: 22000  inst.: 4971043 (ipc=226.0) sim_rate=44784 (inst/sec) elapsed = 0:0:01:51 / Thu Aug 14 11:04:51 2014
GPGPU-Sim PTX: 5200000 instructions simulated : ctaid=(110,0,0) tid=(402,0,0)
GPGPU-Sim uArch: cycles simulated: 22500  inst.: 5047811 (ipc=224.3) sim_rate=44670 (inst/sec) elapsed = 0:0:01:53 / Thu Aug 14 11:04:53 2014
GPGPU-Sim uArch: cycles simulated: 23000  inst.: 5115414 (ipc=222.4) sim_rate=44481 (inst/sec) elapsed = 0:0:01:55 / Thu Aug 14 11:04:55 2014
GPGPU-Sim uArch: Shader 12 finished CTA #0 (23261,0), 1 CTAs running
GPGPU-Sim uArch: core: 12, cta: 0 initialized @(23262,0)
GPGPU-Sim uArch: Shader 11 finished CTA #0 (23263,0), 1 CTAs running
GPGPU-Sim uArch: core: 11, cta: 0 initialized @(23264,0)
GPGPU-Sim PTX: 5300000 instructions simulated : ctaid=(116,0,0) tid=(405,0,0)
GPGPU-Sim uArch: Shader 5 finished CTA #1 (23363,0), 1 CTAs running
GPGPU-Sim uArch: core:  5, cta: 1 initialized @(23364,0)
GPGPU-Sim uArch: Shader 12 finished CTA #1 (23369,0), 1 CTAs running
GPGPU-Sim uArch: core: 12, cta: 1 initialized @(23370,0)
GPGPU-Sim uArch: Shader 8 finished CTA #0 (23396,0), 1 CTAs running
GPGPU-Sim uArch: core:  8, cta: 0 initialized @(23397,0)
GPGPU-Sim uArch: Shader 4 finished CTA #0 (23398,0), 1 CTAs running
GPGPU-Sim uArch: core:  4, cta: 0 initialized @(23399,0)
GPGPU-Sim uArch: Shader 5 finished CTA #0 (23446,0), 1 CTAs running
GPGPU-Sim uArch: Shader 14 finished CTA #0 (23446,0), 1 CTAs running
GPGPU-Sim uArch: core:  5, cta: 0 initialized @(23447,0)
GPGPU-Sim uArch: core: 14, cta: 0 initialized @(23447,0)
GPGPU-Sim uArch: Shader 10 finished CTA #1 (23450,0), 1 CTAs running
GPGPU-Sim uArch: core: 10, cta: 1 initialized @(23451,0)
GPGPU-Sim uArch: Shader 8 finished CTA #1 (23455,0), 1 CTAs running
GPGPU-Sim uArch: core:  8, cta: 1 initialized @(23456,0)
GPGPU-Sim uArch: Shader 4 finished CTA #1 (23457,0), 1 CTAs running
GPGPU-Sim uArch: core:  4, cta: 1 initialized @(23458,0)
GPGPU-Sim uArch: Shader 0 finished CTA #1 (23467,0), 1 CTAs running
GPGPU-Sim uArch: Shader 10 finished CTA #0 (23467,0), 1 CTAs running
GPGPU-Sim uArch: core: 10, cta: 0 initialized @(23468,0)
GPGPU-Sim uArch: core:  0, cta: 1 initialized @(23468,0)
GPGPU-Sim uArch: cycles simulated: 23500  inst.: 5192841 (ipc=221.0) sim_rate=44383 (inst/sec) elapsed = 0:0:01:57 / Thu Aug 14 11:04:57 2014
GPGPU-Sim uArch: Shader 0 finished CTA #0 (23533,0), 1 CTAs running
GPGPU-Sim uArch: core:  0, cta: 0 initialized @(23534,0)
GPGPU-Sim uArch: Shader 3 finished CTA #0 (23567,0), 1 CTAs running
GPGPU-Sim uArch: core:  3, cta: 0 initialized @(23568,0)
GPGPU-Sim PTX: 5400000 instructions simulated : ctaid=(132,0,0) tid=(69,0,0)
GPGPU-Sim uArch: Shader 9 finished CTA #1 (23719,0), 1 CTAs running
GPGPU-Sim uArch: core:  9, cta: 1 initialized @(23720,0)
GPGPU-Sim uArch: Shader 6 finished CTA #0 (23721,0), 1 CTAs running
GPGPU-Sim uArch: core:  6, cta: 0 initialized @(23722,0)
GPGPU-Sim PTX: 5500000 instructions simulated : ctaid=(130,0,0) tid=(471,0,0)
GPGPU-Sim uArch: Shader 2 finished CTA #1 (23792,0), 1 CTAs running
GPGPU-Sim uArch: core:  2, cta: 1 initialized @(23793,0)
GPGPU-Sim uArch: cycles simulated: 24000  inst.: 5407897 (ipc=225.3) sim_rate=44693 (inst/sec) elapsed = 0:0:02:01 / Thu Aug 14 11:05:01 2014
GPGPU-Sim uArch: Shader 7 finished CTA #0 (24073,0), 1 CTAs running
GPGPU-Sim uArch: core:  7, cta: 0 initialized @(24074,0)
GPGPU-Sim PTX: 5600000 instructions simulated : ctaid=(129,0,0) tid=(341,0,0)
GPGPU-Sim uArch: Shader 14 finished CTA #1 (24218,0), 1 CTAs running
GPGPU-Sim uArch: core: 14, cta: 1 initialized @(24219,0)
GPGPU-Sim uArch: Shader 11 finished CTA #1 (24221,0), 1 CTAs running
GPGPU-Sim uArch: core: 11, cta: 1 initialized @(24222,0)
GPGPU-Sim uArch: Shader 13 finished CTA #1 (24224,0), 1 CTAs running
GPGPU-Sim uArch: core: 13, cta: 1 initialized @(24225,0)
GPGPU-Sim uArch: Shader 3 finished CTA #1 (24239,0), 1 CTAs running
GPGPU-Sim uArch: core:  3, cta: 1 initialized @(24240,0)
GPGPU-Sim uArch: Shader 7 finished CTA #1 (24267,0), 1 CTAs running
GPGPU-Sim uArch: core:  7, cta: 1 initialized @(24268,0)
GPGPU-Sim PTX: 5700000 instructions simulated : ctaid=(141,0,0) tid=(356,0,0)
GPGPU-Sim uArch: Shader 13 finished CTA #0 (24397,0), 1 CTAs running
GPGPU-Sim uArch: core: 13, cta: 0 initialized @(24398,0)
GPGPU-Sim uArch: Shader 2 finished CTA #0 (24455,0), 1 CTAs running
GPGPU-Sim uArch: core:  2, cta: 0 initialized @(24456,0)
GPGPU-Sim uArch: cycles simulated: 24500  inst.: 5581510 (ipc=227.8) sim_rate=44652 (inst/sec) elapsed = 0:0:02:05 / Thu Aug 14 11:05:05 2014
GPGPU-Sim PTX: 5800000 instructions simulated : ctaid=(131,0,0) tid=(381,0,0)
GPGPU-Sim uArch: Shader 9 finished CTA #0 (24619,0), 1 CTAs running
GPGPU-Sim uArch: core:  9, cta: 0 initialized @(24620,0)
GPGPU-Sim uArch: Shader 6 finished CTA #1 (24631,0), 1 CTAs running
GPGPU-Sim uArch: core:  6, cta: 1 initialized @(24632,0)
GPGPU-Sim uArch: Shader 1 finished CTA #1 (24765,0), 1 CTAs running
GPGPU-Sim uArch: core:  1, cta: 1 initialized @(24766,0)
GPGPU-Sim PTX: 5900000 instructions simulated : ctaid=(147,0,0) tid=(461,0,0)
GPGPU-Sim uArch: Shader 1 finished CTA #0 (24886,0), 1 CTAs running
GPGPU-Sim uArch: core:  1, cta: 0 initialized @(24887,0)
GPGPU-Sim uArch: cycles simulated: 25000  inst.: 5772669 (ipc=230.9) sim_rate=45098 (inst/sec) elapsed = 0:0:02:08 / Thu Aug 14 11:05:08 2014
GPGPU-Sim PTX: 6000000 instructions simulated : ctaid=(122,0,0) tid=(141,0,0)
GPGPU-Sim uArch: cycles simulated: 25500  inst.: 5906808 (ipc=231.6) sim_rate=45436 (inst/sec) elapsed = 0:0:02:10 / Thu Aug 14 11:05:10 2014
GPGPU-Sim PTX: 6100000 instructions simulated : ctaid=(132,0,0) tid=(400,0,0)
GPGPU-Sim PTX: 6200000 instructions simulated : ctaid=(124,0,0) tid=(5,0,0)
GPGPU-Sim uArch: cycles simulated: 26000  inst.: 6032219 (ipc=232.0) sim_rate=45355 (inst/sec) elapsed = 0:0:02:13 / Thu Aug 14 11:05:13 2014
GPGPU-Sim PTX: 6300000 instructions simulated : ctaid=(123,0,0) tid=(44,0,0)
GPGPU-Sim uArch: cycles simulated: 26500  inst.: 6140679 (ipc=231.7) sim_rate=45486 (inst/sec) elapsed = 0:0:02:15 / Thu Aug 14 11:05:15 2014
GPGPU-Sim PTX: 6400000 instructions simulated : ctaid=(149,0,0) tid=(348,0,0)
GPGPU-Sim uArch: cycles simulated: 27000  inst.: 6240478 (ipc=231.1) sim_rate=45550 (inst/sec) elapsed = 0:0:02:17 / Thu Aug 14 11:05:17 2014
GPGPU-Sim PTX: 6500000 instructions simulated : ctaid=(130,0,0) tid=(171,0,0)
GPGPU-Sim uArch: cycles simulated: 27500  inst.: 6306870 (ipc=229.3) sim_rate=45373 (inst/sec) elapsed = 0:0:02:19 / Thu Aug 14 11:05:19 2014
GPGPU-Sim uArch: cycles simulated: 28000  inst.: 6383196 (ipc=228.0) sim_rate=45270 (inst/sec) elapsed = 0:0:02:21 / Thu Aug 14 11:05:21 2014
GPGPU-Sim uArch: Shader 12 finished CTA #1 (28030,0), 1 CTAs running
GPGPU-Sim uArch: core: 12, cta: 1 initialized @(28031,0)
GPGPU-Sim uArch: Shader 12 finished CTA #0 (28047,0), 1 CTAs running
GPGPU-Sim uArch: core: 12, cta: 0 initialized @(28048,0)
GPGPU-Sim PTX: 6600000 instructions simulated : ctaid=(132,0,0) tid=(53,0,0)
GPGPU-Sim uArch: cycles simulated: 28500  inst.: 6467852 (ipc=226.9) sim_rate=45229 (inst/sec) elapsed = 0:0:02:23 / Thu Aug 14 11:05:23 2014
GPGPU-Sim uArch: Shader 10 finished CTA #0 (28702,0), 1 CTAs running
GPGPU-Sim uArch: core: 10, cta: 0 initialized @(28703,0)
GPGPU-Sim uArch: Shader 4 finished CTA #1 (28704,0), 1 CTAs running
GPGPU-Sim uArch: core:  4, cta: 1 initialized @(28705,0)
GPGPU-Sim uArch: Shader 5 finished CTA #1 (28708,0), 1 CTAs running
GPGPU-Sim uArch: core:  5, cta: 1 initialized @(28709,0)
GPGPU-Sim uArch: Shader 14 finished CTA #0 (28712,0), 1 CTAs running
GPGPU-Sim uArch: core: 14, cta: 0 initialized @(28713,0)
GPGPU-Sim uArch: Shader 5 finished CTA #0 (28725,0), 1 CTAs running
GPGPU-Sim uArch: core:  5, cta: 0 initialized @(28726,0)
GPGPU-Sim uArch: Shader 8 finished CTA #1 (28752,0), 1 CTAs running
GPGPU-Sim uArch: core:  8, cta: 1 initialized @(28753,0)
GPGPU-Sim PTX: 6700000 instructions simulated : ctaid=(147,0,0) tid=(431,0,0)
GPGPU-Sim uArch: Shader 11 finished CTA #0 (28779,0), 1 CTAs running
GPGPU-Sim uArch: core: 11, cta: 0 initialized @(28780,0)
GPGPU-Sim uArch: Shader 3 finished CTA #1 (28840,0), 1 CTAs running
GPGPU-Sim uArch: core:  3, cta: 1 initialized @(28841,0)
GPGPU-Sim uArch: Shader 3 finished CTA #0 (28857,0), 1 CTAs running
GPGPU-Sim uArch: core:  3, cta: 0 initialized @(28858,0)
GPGPU-Sim uArch: Shader 0 finished CTA #0 (28897,0), 1 CTAs running
GPGPU-Sim uArch: core:  0, cta: 0 initialized @(28898,0)
GPGPU-Sim uArch: Shader 10 finished CTA #1 (28915,0), 1 CTAs running
GPGPU-Sim uArch: core: 10, cta: 1 initialized @(28916,0)
GPGPU-Sim uArch: Shader 7 finished CTA #1 (28921,0), 1 CTAs running
GPGPU-Sim uArch: core:  7, cta: 1 initialized @(28922,0)
GPGPU-Sim uArch: Shader 11 finished CTA #1 (28939,0), 1 CTAs running
GPGPU-Sim uArch: core: 11, cta: 1 initialized @(28940,0)
GPGPU-Sim PTX: 6800000 instructions simulated : ctaid=(159,0,0) tid=(253,0,0)
GPGPU-Sim uArch: Shader 4 finished CTA #0 (28985,0), 1 CTAs running
GPGPU-Sim uArch: core:  4, cta: 0 initialized @(28986,0)
GPGPU-Sim uArch: Shader 7 finished CTA #0 (28997,0), 1 CTAs running
GPGPU-Sim uArch: core:  7, cta: 0 initialized @(28998,0)
GPGPU-Sim uArch: cycles simulated: 29000  inst.: 6600270 (ipc=227.6) sim_rate=44899 (inst/sec) elapsed = 0:0:02:27 / Thu Aug 14 11:05:27 2014
GPGPU-Sim uArch: Shader 0 finished CTA #1 (29028,0), 1 CTAs running
GPGPU-Sim uArch: core:  0, cta: 1 initialized @(29029,0)
GPGPU-Sim uArch: Shader 6 finished CTA #0 (29058,0), 1 CTAs running
GPGPU-Sim uArch: core:  6, cta: 0 initialized @(29059,0)
GPGPU-Sim uArch: Shader 2 finished CTA #1 (29072,0), 1 CTAs running
GPGPU-Sim uArch: core:  2, cta: 1 initialized @(29073,0)
GPGPU-Sim uArch: Shader 13 finished CTA #1 (29108,0), 1 CTAs running
GPGPU-Sim uArch: core: 13, cta: 1 initialized @(29109,0)
GPGPU-Sim uArch: Shader 8 finished CTA #0 (29146,0), 1 CTAs running
GPGPU-Sim uArch: core:  8, cta: 0 initialized @(29147,0)
GPGPU-Sim uArch: Shader 9 finished CTA #1 (29172,0), 1 CTAs running
GPGPU-Sim uArch: core:  9, cta: 1 initialized @(29173,0)
GPGPU-Sim PTX: 6900000 instructions simulated : ctaid=(169,0,0) tid=(294,0,0)
GPGPU-Sim uArch: Shader 14 finished CTA #1 (29261,0), 1 CTAs running
GPGPU-Sim uArch: core: 14, cta: 1 initialized @(29262,0)
GPGPU-Sim PTX: 7000000 instructions simulated : ctaid=(155,0,0) tid=(10,0,0)
GPGPU-Sim uArch: cycles simulated: 29500  inst.: 6829885 (ipc=231.5) sim_rate=45231 (inst/sec) elapsed = 0:0:02:31 / Thu Aug 14 11:05:31 2014
GPGPU-Sim uArch: Shader 9 finished CTA #0 (29532,0), 1 CTAs running
GPGPU-Sim uArch: core:  9, cta: 0 initialized @(29533,0)
GPGPU-Sim uArch: Shader 1 finished CTA #0 (29597,0), 1 CTAs running
GPGPU-Sim uArch: core:  1, cta: 0 initialized @(29598,0)
GPGPU-Sim PTX: 7100000 instructions simulated : ctaid=(175,0,0) tid=(192,0,0)
GPGPU-Sim uArch: Shader 2 finished CTA #0 (29689,0), 1 CTAs running
GPGPU-Sim uArch: core:  2, cta: 0 initialized @(29690,0)
GPGPU-Sim uArch: Shader 13 finished CTA #0 (29713,0), 1 CTAs running
GPGPU-Sim uArch: core: 13, cta: 0 initialized @(29714,0)
GPGPU-Sim uArch: Shader 1 finished CTA #1 (29752,0), 1 CTAs running
GPGPU-Sim uArch: core:  1, cta: 1 initialized @(29753,0)
GPGPU-Sim PTX: 7200000 instructions simulated : ctaid=(172,0,0) tid=(435,0,0)
GPGPU-Sim uArch: Shader 6 finished CTA #1 (29947,0), 1 CTAs running
GPGPU-Sim uArch: core:  6, cta: 1 initialized @(29948,0)
GPGPU-Sim uArch: cycles simulated: 30000  inst.: 7035215 (ipc=234.5) sim_rate=45683 (inst/sec) elapsed = 0:0:02:34 / Thu Aug 14 11:05:34 2014
GPGPU-Sim PTX: 7300000 instructions simulated : ctaid=(151,0,0) tid=(211,0,0)
GPGPU-Sim uArch: cycles simulated: 30500  inst.: 7143453 (ipc=234.2) sim_rate=45791 (inst/sec) elapsed = 0:0:02:36 / Thu Aug 14 11:05:36 2014
GPGPU-Sim PTX: 7400000 instructions simulated : ctaid=(163,0,0) tid=(50,0,0)
GPGPU-Sim uArch: cycles simulated: 31000  inst.: 7252801 (ipc=234.0) sim_rate=45615 (inst/sec) elapsed = 0:0:02:39 / Thu Aug 14 11:05:39 2014
GPGPU-Sim PTX: 7500000 instructions simulated : ctaid=(174,0,0) tid=(14,0,0)
GPGPU-Sim PTX: 7600000 instructions simulated : ctaid=(170,0,0) tid=(77,0,0)
GPGPU-Sim uArch: cycles simulated: 31500  inst.: 7386971 (ipc=234.5) sim_rate=45881 (inst/sec) elapsed = 0:0:02:41 / Thu Aug 14 11:05:41 2014
GPGPU-Sim PTX: 7700000 instructions simulated : ctaid=(151,0,0) tid=(272,0,0)
GPGPU-Sim uArch: cycles simulated: 32000  inst.: 7476548 (ipc=233.6) sim_rate=45868 (inst/sec) elapsed = 0:0:02:43 / Thu Aug 14 11:05:43 2014
GPGPU-Sim PTX: 7800000 instructions simulated : ctaid=(158,0,0) tid=(475,0,0)
GPGPU-Sim uArch: cycles simulated: 32500  inst.: 7580686 (ipc=233.3) sim_rate=45943 (inst/sec) elapsed = 0:0:02:45 / Thu Aug 14 11:05:45 2014
GPGPU-Sim uArch: Shader 12 finished CTA #1 (32877,0), 1 CTAs running
GPGPU-Sim uArch: core: 12, cta: 1 initialized @(32878,0)
GPGPU-Sim uArch: Shader 12 finished CTA #0 (32943,0), 1 CTAs running
GPGPU-Sim uArch: core: 12, cta: 0 initialized @(32944,0)
GPGPU-Sim uArch: cycles simulated: 33000  inst.: 7647452 (ipc=231.7) sim_rate=45793 (inst/sec) elapsed = 0:0:02:47 / Thu Aug 14 11:05:47 2014
GPGPU-Sim PTX: 7900000 instructions simulated : ctaid=(159,0,0) tid=(404,0,0)
GPGPU-Sim uArch: cycles simulated: 33500  inst.: 7739198 (ipc=231.0) sim_rate=45524 (inst/sec) elapsed = 0:0:02:50 / Thu Aug 14 11:05:50 2014
GPGPU-Sim uArch: Shader 0 finished CTA #1 (33570,0), 1 CTAs running
GPGPU-Sim uArch: core:  0, cta: 1 initialized @(33571,0)
GPGPU-Sim PTX: 8000000 instructions simulated : ctaid=(164,0,0) tid=(110,0,0)
GPGPU-Sim uArch: Shader 0 finished CTA #0 (33629,0), 1 CTAs running
GPGPU-Sim uArch: core:  0, cta: 0 initialized @(33630,0)
GPGPU-Sim uArch: Shader 7 finished CTA #1 (33685,0), 1 CTAs running
GPGPU-Sim uArch: core:  7, cta: 1 initialized @(33686,0)
GPGPU-Sim uArch: Shader 5 finished CTA #0 (33716,0), 1 CTAs running
GPGPU-Sim uArch: core:  5, cta: 0 initialized @(33717,0)
GPGPU-Sim uArch: Shader 7 finished CTA #0 (33816,0), 1 CTAs running
GPGPU-Sim uArch: core:  7, cta: 0 initialized @(33817,0)
GPGPU-Sim uArch: Shader 8 finished CTA #1 (33840,0), 1 CTAs running
GPGPU-Sim uArch: core:  8, cta: 1 initialized @(33841,0)
GPGPU-Sim uArch: Shader 9 finished CTA #1 (33900,0), 1 CTAs running
GPGPU-Sim uArch: core:  9, cta: 1 initialized @(33901,0)
GPGPU-Sim uArch: Shader 4 finished CTA #1 (33937,0), 1 CTAs running
GPGPU-Sim uArch: core:  4, cta: 1 initialized @(33938,0)
GPGPU-Sim uArch: Shader 5 finished CTA #1 (33986,0), 1 CTAs running
GPGPU-Sim uArch: core:  5, cta: 1 initialized @(33987,0)
GPGPU-Sim PTX: 8100000 instructions simulated : ctaid=(180,0,0) tid=(357,0,0)
GPGPU-Sim uArch: cycles simulated: 34000  inst.: 7856891 (ipc=231.1) sim_rate=45415 (inst/sec) elapsed = 0:0:02:53 / Thu Aug 14 11:05:53 2014
GPGPU-Sim uArch: Shader 9 finished CTA #0 (34058,0), 1 CTAs running
GPGPU-Sim uArch: core:  9, cta: 0 initialized @(34059,0)
GPGPU-Sim uArch: Shader 3 finished CTA #1 (34071,0), 1 CTAs running
GPGPU-Sim uArch: core:  3, cta: 1 initialized @(34072,0)
GPGPU-Sim uArch: Shader 10 finished CTA #1 (34108,0), 1 CTAs running
GPGPU-Sim uArch: core: 10, cta: 1 initialized @(34109,0)
GPGPU-Sim uArch: Shader 4 finished CTA #0 (34119,0), 1 CTAs running
GPGPU-Sim uArch: core:  4, cta: 0 initialized @(34120,0)
GPGPU-Sim uArch: Shader 3 finished CTA #0 (34189,0), 1 CTAs running
GPGPU-Sim uArch: core:  3, cta: 0 initialized @(34190,0)
GPGPU-Sim uArch: Shader 10 finished CTA #0 (34191,0), 1 CTAs running
GPGPU-Sim uArch: core: 10, cta: 0 initialized @(34192,0)
GPGPU-Sim uArch: Shader 14 finished CTA #1 (34192,0), 1 CTAs running
GPGPU-Sim uArch: core: 14, cta: 1 initialized @(34193,0)
GPGPU-Sim PTX: 8200000 instructions simulated : ctaid=(190,0,0) tid=(377,0,0)
GPGPU-Sim uArch: Shader 14 finished CTA #0 (34323,0), 1 CTAs running
GPGPU-Sim uArch: core: 14, cta: 0 initialized @(34324,0)
GPGPU-Sim uArch: Shader 8 finished CTA #0 (34371,0), 1 CTAs running
GPGPU-Sim uArch: core:  8, cta: 0 initialized @(34372,0)
GPGPU-Sim uArch: Shader 11 finished CTA #0 (34409,0), 1 CTAs running
GPGPU-Sim uArch: core: 11, cta: 0 initialized @(34410,0)
GPGPU-Sim PTX: 8300000 instructions simulated : ctaid=(195,0,0) tid=(96,0,0)
GPGPU-Sim uArch: cycles simulated: 34500  inst.: 8061305 (ipc=233.7) sim_rate=45544 (inst/sec) elapsed = 0:0:02:57 / Thu Aug 14 11:05:57 2014
GPGPU-Sim PTX: 8400000 instructions simulated : ctaid=(195,0,0) tid=(264,0,0)
GPGPU-Sim uArch: Shader 6 finished CTA #0 (34764,0), 1 CTAs running
GPGPU-Sim uArch: core:  6, cta: 0 initialized @(34765,0)
GPGPU-Sim uArch: Shader 6 finished CTA #1 (34799,0), 1 CTAs running
GPGPU-Sim uArch: core:  6, cta: 1 initialized @(34800,0)
GPGPU-Sim uArch: Shader 11 finished CTA #1 (34881,0), 1 CTAs running
GPGPU-Sim uArch: core: 11, cta: 1 initialized @(34882,0)
GPGPU-Sim uArch: Shader 2 finished CTA #1 (34933,0), 1 CTAs running
GPGPU-Sim uArch: core:  2, cta: 1 initialized @(34934,0)
GPGPU-Sim uArch: cycles simulated: 35000  inst.: 8199968 (ipc=234.3) sim_rate=45555 (inst/sec) elapsed = 0:0:03:00 / Thu Aug 14 11:06:00 2014
GPGPU-Sim uArch: Shader 13 finished CTA #0 (35013,0), 1 CTAs running
GPGPU-Sim uArch: core: 13, cta: 0 initialized @(35014,0)
GPGPU-Sim uArch: Shader 13 finished CTA #1 (35030,0), 1 CTAs running
GPGPU-Sim uArch: core: 13, cta: 1 initialized @(35031,0)
GPGPU-Sim uArch: Shader 1 finished CTA #0 (35046,0), 1 CTAs running
GPGPU-Sim uArch: core:  1, cta: 0 initialized @(35047,0)
GPGPU-Sim PTX: 8500000 instructions simulated : ctaid=(198,0,0) tid=(201,0,0)
GPGPU-Sim PTX: 8600000 instructions simulated : ctaid=(204,0,0) tid=(435,0,0)
GPGPU-Sim uArch: Shader 2 finished CTA #0 (35431,0), 1 CTAs running
GPGPU-Sim uArch: core:  2, cta: 0 initialized @(35432,0)
GPGPU-Sim uArch: cycles simulated: 35500  inst.: 8386068 (ipc=236.2) sim_rate=45825 (inst/sec) elapsed = 0:0:03:03 / Thu Aug 14 11:06:03 2014
GPGPU-Sim uArch: Shader 1 finished CTA #1 (35609,0), 1 CTAs running
GPGPU-Sim uArch: core:  1, cta: 1 initialized @(35610,0)
GPGPU-Sim PTX: 8700000 instructions simulated : ctaid=(209,0,0) tid=(251,0,0)
GPGPU-Sim uArch: cycles simulated: 36000  inst.: 8533073 (ipc=237.0) sim_rate=45876 (inst/sec) elapsed = 0:0:03:06 / Thu Aug 14 11:06:06 2014
GPGPU-Sim PTX: 8800000 instructions simulated : ctaid=(186,0,0) tid=(257,0,0)
GPGPU-Sim PTX: 8900000 instructions simulated : ctaid=(181,0,0) tid=(252,0,0)
GPGPU-Sim uArch: cycles simulated: 36500  inst.: 8639553 (ipc=236.7) sim_rate=45955 (inst/sec) elapsed = 0:0:03:08 / Thu Aug 14 11:06:08 2014
GPGPU-Sim PTX: 9000000 instructions simulated : ctaid=(187,0,0) tid=(481,0,0)
GPGPU-Sim uArch: cycles simulated: 37000  inst.: 8747078 (ipc=236.4) sim_rate=46037 (inst/sec) elapsed = 0:0:03:10 / Thu Aug 14 11:06:10 2014
GPGPU-Sim PTX: 9100000 instructions simulated : ctaid=(193,0,0) tid=(496,0,0)
GPGPU-Sim uArch: cycles simulated: 37500  inst.: 8835563 (ipc=235.6) sim_rate=46018 (inst/sec) elapsed = 0:0:03:12 / Thu Aug 14 11:06:12 2014
GPGPU-Sim PTX: 9200000 instructions simulated : ctaid=(199,0,0) tid=(128,0,0)
GPGPU-Sim uArch: cycles simulated: 38000  inst.: 8924821 (ipc=234.9) sim_rate=46004 (inst/sec) elapsed = 0:0:03:14 / Thu Aug 14 11:06:14 2014
GPGPU-Sim uArch: Shader 12 finished CTA #1 (38035,0), 1 CTAs running
GPGPU-Sim uArch: core: 12, cta: 1 initialized @(38036,0)
GPGPU-Sim uArch: Shader 12 finished CTA #0 (38166,0), 1 CTAs running
GPGPU-Sim uArch: core: 12, cta: 0 initialized @(38167,0)
GPGPU-Sim uArch: Shader 7 finished CTA #0 (38360,0), 1 CTAs running
GPGPU-Sim uArch: core:  7, cta: 0 initialized @(38361,0)
GPGPU-Sim uArch: Shader 7 finished CTA #1 (38377,0), 1 CTAs running
GPGPU-Sim uArch: core:  7, cta: 1 initialized @(38378,0)
GPGPU-Sim uArch: Shader 5 finished CTA #0 (38432,0), 1 CTAs running
GPGPU-Sim uArch: core:  5, cta: 0 initialized @(38433,0)
GPGPU-Sim PTX: 9300000 instructions simulated : ctaid=(200,0,0) tid=(330,0,0)
GPGPU-Sim uArch: cycles simulated: 38500  inst.: 9023863 (ipc=234.4) sim_rate=46040 (inst/sec) elapsed = 0:0:03:16 / Thu Aug 14 11:06:16 2014
GPGPU-Sim uArch: Shader 5 finished CTA #1 (38732,0), 1 CTAs running
GPGPU-Sim uArch: core:  5, cta: 1 initialized @(38733,0)
GPGPU-Sim PTX: 9400000 instructions simulated : ctaid=(214,0,0) tid=(110,0,0)
GPGPU-Sim uArch: cycles simulated: 39000  inst.: 9118940 (ipc=233.8) sim_rate=46055 (inst/sec) elapsed = 0:0:03:18 / Thu Aug 14 11:06:18 2014
GPGPU-Sim uArch: Shader 9 finished CTA #1 (39077,0), 1 CTAs running
GPGPU-Sim uArch: core:  9, cta: 1 initialized @(39078,0)
GPGPU-Sim uArch: Shader 0 finished CTA #0 (39258,0), 1 CTAs running
GPGPU-Sim uArch: core:  0, cta: 0 initialized @(39259,0)
GPGPU-Sim uArch: Shader 0 finished CTA #1 (39283,0), 1 CTAs running
GPGPU-Sim uArch: core:  0, cta: 1 initialized @(39284,0)
GPGPU-Sim uArch: Shader 9 finished CTA #0 (39294,0), 1 CTAs running
GPGPU-Sim uArch: core:  9, cta: 0 initialized @(39295,0)
GPGPU-Sim uArch: Shader 14 finished CTA #0 (39300,0), 1 CTAs running
GPGPU-Sim uArch: core: 14, cta: 0 initialized @(39301,0)
GPGPU-Sim uArch: Shader 10 finished CTA #0 (39302,0), 1 CTAs running
GPGPU-Sim uArch: core: 10, cta: 0 initialized @(39303,0)
GPGPU-Sim uArch: Shader 11 finished CTA #1 (39304,0), 1 CTAs running
GPGPU-Sim uArch: core: 11, cta: 1 initialized @(39305,0)
GPGPU-Sim uArch: Shader 3 finished CTA #0 (39314,0), 1 CTAs running
GPGPU-Sim uArch: core:  3, cta: 0 initialized @(39315,0)
GPGPU-Sim uArch: Shader 14 finished CTA #1 (39317,0), 1 CTAs running
GPGPU-Sim uArch: core: 14, cta: 1 initialized @(39318,0)
GPGPU-Sim uArch: Shader 10 finished CTA #1 (39326,0), 1 CTAs running
GPGPU-Sim uArch: core: 10, cta: 1 initialized @(39327,0)
GPGPU-Sim uArch: Shader 3 finished CTA #1 (39331,0), 1 CTAs running
GPGPU-Sim uArch: core:  3, cta: 1 initialized @(39332,0)
GPGPU-Sim uArch: Shader 8 finished CTA #1 (39339,0), 1 CTAs running
GPGPU-Sim uArch: core:  8, cta: 1 initialized @(39340,0)
GPGPU-Sim PTX: 9500000 instructions simulated : ctaid=(220,0,0) tid=(323,0,0)
GPGPU-Sim uArch: Shader 11 finished CTA #0 (39419,0), 1 CTAs running
GPGPU-Sim uArch: core: 11, cta: 0 initialized @(39420,0)
GPGPU-Sim uArch: Shader 4 finished CTA #0 (39426,0), 1 CTAs running
GPGPU-Sim uArch: core:  4, cta: 0 initialized @(39427,0)
GPGPU-Sim uArch: cycles simulated: 39500  inst.: 9264267 (ipc=234.5) sim_rate=46090 (inst/sec) elapsed = 0:0:03:21 / Thu Aug 14 11:06:21 2014
GPGPU-Sim uArch: Shader 4 finished CTA #1 (39567,0), 1 CTAs running
GPGPU-Sim uArch: core:  4, cta: 1 initialized @(39568,0)
GPGPU-Sim uArch: Shader 6 finished CTA #0 (39571,0), 1 CTAs running
GPGPU-Sim uArch: core:  6, cta: 0 initialized @(39572,0)
GPGPU-Sim PTX: 9600000 instructions simulated : ctaid=(226,0,0) tid=(384,0,0)
GPGPU-Sim uArch: Shader 6 finished CTA #1 (39791,0), 1 CTAs running
GPGPU-Sim uArch: core:  6, cta: 1 initialized @(39792,0)
GPGPU-Sim PTX: 9700000 instructions simulated : ctaid=(216,0,0) tid=(113,0,0)
GPGPU-Sim uArch: Shader 13 finished CTA #1 (39929,0), 1 CTAs running
GPGPU-Sim uArch: core: 13, cta: 1 initialized @(39930,0)
GPGPU-Sim uArch: cycles simulated: 40000  inst.: 9462955 (ipc=236.6) sim_rate=46387 (inst/sec) elapsed = 0:0:03:24 / Thu Aug 14 11:06:24 2014
GPGPU-Sim uArch: Shader 8 finished CTA #0 (40045,0), 1 CTAs running
GPGPU-Sim uArch: core:  8, cta: 0 initialized @(40046,0)
GPGPU-Sim uArch: Shader 13 finished CTA #0 (40090,0), 1 CTAs running
GPGPU-Sim uArch: core: 13, cta: 0 initialized @(40091,0)
GPGPU-Sim PTX: 9800000 instructions simulated : ctaid=(223,0,0) tid=(370,0,0)
GPGPU-Sim PTX: 9900000 instructions simulated : ctaid=(234,0,0) tid=(450,0,0)
GPGPU-Sim uArch: cycles simulated: 40500  inst.: 9652237 (ipc=238.3) sim_rate=46629 (inst/sec) elapsed = 0:0:03:27 / Thu Aug 14 11:06:27 2014
GPGPU-Sim uArch: Shader 2 finished CTA #1 (40515,0), 1 CTAs running
GPGPU-Sim uArch: core:  2, cta: 1 initialized @(40516,0)
GPGPU-Sim PTX: 10000000 instructions simulated : ctaid=(236,0,0) tid=(54,0,0)
GPGPU-Sim uArch: Shader 2 finished CTA #0 (40891,0), 1 CTAs running
GPGPU-Sim uArch: core:  2, cta: 0 initialized @(40892,0)
GPGPU-Sim uArch: Shader 1 finished CTA #0 (40893,0), 1 CTAs running
GPGPU-Sim uArch: core:  1, cta: 0 initialized @(40894,0)
GPGPU-Sim uArch: cycles simulated: 41000  inst.: 9759767 (ipc=238.0) sim_rate=46697 (inst/sec) elapsed = 0:0:03:29 / Thu Aug 14 11:06:29 2014
GPGPU-Sim uArch: Shader 1 finished CTA #1 (41034,0), 1 CTAs running
GPGPU-Sim uArch: core:  1, cta: 1 initialized @(41035,0)
GPGPU-Sim PTX: 10100000 instructions simulated : ctaid=(237,0,0) tid=(195,0,0)
GPGPU-Sim PTX: 10200000 instructions simulated : ctaid=(234,0,0) tid=(39,0,0)
GPGPU-Sim uArch: cycles simulated: 41500  inst.: 9918913 (ipc=239.0) sim_rate=46787 (inst/sec) elapsed = 0:0:03:32 / Thu Aug 14 11:06:32 2014
GPGPU-Sim PTX: 10300000 instructions simulated : ctaid=(217,0,0) tid=(296,0,0)
GPGPU-Sim uArch: cycles simulated: 42000  inst.: 10045280 (ipc=239.2) sim_rate=46940 (inst/sec) elapsed = 0:0:03:34 / Thu Aug 14 11:06:34 2014
GPGPU-Sim PTX: 10400000 instructions simulated : ctaid=(232,0,0) tid=(436,0,0)
GPGPU-Sim uArch: cycles simulated: 42500  inst.: 10124257 (ipc=238.2) sim_rate=46871 (inst/sec) elapsed = 0:0:03:36 / Thu Aug 14 11:06:36 2014
GPGPU-Sim PTX: 10500000 instructions simulated : ctaid=(212,0,0) tid=(226,0,0)
GPGPU-Sim uArch: cycles simulated: 43000  inst.: 10214602 (ipc=237.5) sim_rate=46855 (inst/sec) elapsed = 0:0:03:38 / Thu Aug 14 11:06:38 2014
GPGPU-Sim uArch: Shader 12 finished CTA #0 (43195,0), 1 CTAs running
GPGPU-Sim uArch: core: 12, cta: 0 initialized @(43196,0)
GPGPU-Sim uArch: Shader 5 finished CTA #1 (43197,0), 1 CTAs running
GPGPU-Sim uArch: core:  5, cta: 1 initialized @(43198,0)
GPGPU-Sim uArch: Shader 7 finished CTA #0 (43341,0), 1 CTAs running
GPGPU-Sim uArch: core:  7, cta: 0 initialized @(43342,0)
GPGPU-Sim PTX: 10600000 instructions simulated : ctaid=(240,0,0) tid=(256,0,0)
GPGPU-Sim uArch: Shader 5 finished CTA #0 (43392,0), 1 CTAs running
GPGPU-Sim uArch: core:  5, cta: 0 initialized @(43393,0)
GPGPU-Sim uArch: Shader 12 finished CTA #1 (43397,0), 1 CTAs running
GPGPU-Sim uArch: core: 12, cta: 1 initialized @(43398,0)
GPGPU-Sim uArch: Shader 7 finished CTA #1 (43456,0), 1 CTAs running
GPGPU-Sim uArch: core:  7, cta: 1 initialized @(43457,0)
GPGPU-Sim uArch: cycles simulated: 43500  inst.: 10305831 (ipc=236.9) sim_rate=46844 (inst/sec) elapsed = 0:0:03:40 / Thu Aug 14 11:06:40 2014
GPGPU-Sim PTX: 10700000 instructions simulated : ctaid=(243,0,0) tid=(274,0,0)
GPGPU-Sim uArch: cycles simulated: 44000  inst.: 10417245 (ipc=236.8) sim_rate=46924 (inst/sec) elapsed = 0:0:03:42 / Thu Aug 14 11:06:42 2014
GPGPU-Sim uArch: Shader 9 finished CTA #1 (44093,0), 1 CTAs running
GPGPU-Sim uArch: core:  9, cta: 1 initialized @(44094,0)
GPGPU-Sim uArch: Shader 9 finished CTA #0 (44118,0), 1 CTAs running
GPGPU-Sim uArch: core:  9, cta: 0 initialized @(44119,0)
GPGPU-Sim PTX: 10800000 instructions simulated : ctaid=(225,0,0) tid=(48,0,0)
GPGPU-Sim uArch: Shader 4 finished CTA #1 (44369,0), 1 CTAs running
GPGPU-Sim uArch: core:  4, cta: 1 initialized @(44370,0)
GPGPU-Sim uArch: Shader 6 finished CTA #0 (44433,0), 1 CTAs running
GPGPU-Sim uArch: core:  6, cta: 0 initialized @(44434,0)
GPGPU-Sim uArch: Shader 4 finished CTA #0 (44435,0), 1 CTAs running
GPGPU-Sim uArch: core:  4, cta: 0 initialized @(44436,0)
GPGPU-Sim uArch: Shader 6 finished CTA #1 (44473,0), 1 CTAs running
GPGPU-Sim uArch: core:  6, cta: 1 initialized @(44474,0)
GPGPU-Sim uArch: cycles simulated: 44500  inst.: 10523086 (ipc=236.5) sim_rate=46769 (inst/sec) elapsed = 0:0:03:45 / Thu Aug 14 11:06:45 2014
GPGPU-Sim uArch: Shader 8 finished CTA #0 (44542,0), 1 CTAs running
GPGPU-Sim uArch: core:  8, cta: 0 initialized @(44543,0)
GPGPU-Sim uArch: Shader 8 finished CTA #1 (44577,0), 1 CTAs running
GPGPU-Sim uArch: core:  8, cta: 1 initialized @(44578,0)
GPGPU-Sim uArch: Shader 0 finished CTA #1 (44584,0), 1 CTAs running
GPGPU-Sim uArch: core:  0, cta: 1 initialized @(44585,0)
GPGPU-Sim uArch: Shader 10 finished CTA #0 (44646,0), 1 CTAs running
GPGPU-Sim uArch: core: 10, cta: 0 initialized @(44647,0)
GPGPU-Sim uArch: Shader 0 finished CTA #0 (44660,0), 1 CTAs running
GPGPU-Sim uArch: core:  0, cta: 0 initialized @(44661,0)
GPGPU-Sim uArch: Shader 11 finished CTA #1 (44665,0), 1 CTAs running
GPGPU-Sim uArch: core: 11, cta: 1 initialized @(44666,0)
GPGPU-Sim PTX: 10900000 instructions simulated : ctaid=(253,0,0) tid=(264,0,0)
GPGPU-Sim uArch: Shader 11 finished CTA #0 (44796,0), 1 CTAs running
GPGPU-Sim uArch: core: 11, cta: 0 initialized @(44797,0)
GPGPU-Sim uArch: Shader 14 finished CTA #0 (44837,0), 1 CTAs running
GPGPU-Sim uArch: core: 14, cta: 0 initialized @(44838,0)
GPGPU-Sim uArch: Shader 14 finished CTA #1 (44879,0), 1 CTAs running
GPGPU-Sim uArch: core: 14, cta: 1 initialized @(44880,0)
GPGPU-Sim uArch: Shader 3 finished CTA #1 (44907,0), 1 CTAs running
GPGPU-Sim uArch: core:  3, cta: 1 initialized @(44908,0)
GPGPU-Sim uArch: Shader 10 finished CTA #1 (44909,0), 1 CTAs running
GPGPU-Sim uArch: core: 10, cta: 1 initialized @(44910,0)
GPGPU-Sim PTX: 11000000 instructions simulated : ctaid=(241,0,0) tid=(245,0,0)
GPGPU-Sim uArch: Shader 3 finished CTA #0 (44942,0), 1 CTAs running
GPGPU-Sim uArch: core:  3, cta: 0 initialized @(44943,0)
GPGPU-Sim uArch: cycles simulated: 45000  inst.: 10700195 (ipc=237.8) sim_rate=46930 (inst/sec) elapsed = 0:0:03:48 / Thu Aug 14 11:06:48 2014
GPGPU-Sim PTX: 11100000 instructions simulated : ctaid=(259,0,0) tid=(116,0,0)
GPGPU-Sim uArch: Shader 13 finished CTA #1 (45258,0), 1 CTAs running
GPGPU-Sim uArch: core: 13, cta: 1 initialized @(45259,0)
GPGPU-Sim uArch: Shader 13 finished CTA #0 (45313,0), 1 CTAs running
GPGPU-Sim uArch: core: 13, cta: 0 initialized @(45314,0)
GPGPU-Sim PTX: 11200000 instructions simulated : ctaid=(253,0,0) tid=(211,0,0)
GPGPU-Sim uArch: Shader 2 finished CTA #0 (45441,0), 1 CTAs running
GPGPU-Sim uArch: core:  2, cta: 0 initialized @(45442,0)
GPGPU-Sim uArch: Shader 1 finished CTA #0 (45447,0), 1 CTAs running
GPGPU-Sim uArch: core:  1, cta: 0 initialized @(45448,0)
GPGPU-Sim uArch: Shader 2 finished CTA #1 (45466,0), 1 CTAs running
GPGPU-Sim uArch: core:  2, cta: 1 initialized @(45467,0)
GPGPU-Sim uArch: cycles simulated: 45500  inst.: 10904585 (ipc=239.7) sim_rate=47205 (inst/sec) elapsed = 0:0:03:51 / Thu Aug 14 11:06:51 2014
GPGPU-Sim uArch: Shader 1 finished CTA #1 (45562,0), 1 CTAs running
GPGPU-Sim uArch: core:  1, cta: 1 initialized @(45563,0)
GPGPU-Sim PTX: 11300000 instructions simulated : ctaid=(267,0,0) tid=(313,0,0)
GPGPU-Sim PTX: 11400000 instructions simulated : ctaid=(244,0,0) tid=(100,0,0)
GPGPU-Sim uArch: cycles simulated: 46000  inst.: 11070483 (ipc=240.7) sim_rate=47512 (inst/sec) elapsed = 0:0:03:53 / Thu Aug 14 11:06:53 2014
GPGPU-Sim PTX: 11500000 instructions simulated : ctaid=(257,0,0) tid=(172,0,0)
GPGPU-Sim uArch: cycles simulated: 46500  inst.: 11184116 (ipc=240.5) sim_rate=47591 (inst/sec) elapsed = 0:0:03:55 / Thu Aug 14 11:06:55 2014
GPGPU-Sim PTX: 11600000 instructions simulated : ctaid=(264,0,0) tid=(263,0,0)
GPGPU-Sim uArch: cycles simulated: 47000  inst.: 11277173 (ipc=239.9) sim_rate=47583 (inst/sec) elapsed = 0:0:03:57 / Thu Aug 14 11:06:57 2014
GPGPU-Sim PTX: 11700000 instructions simulated : ctaid=(250,0,0) tid=(345,0,0)
GPGPU-Sim uArch: cycles simulated: 47500  inst.: 11391517 (ipc=239.8) sim_rate=47663 (inst/sec) elapsed = 0:0:03:59 / Thu Aug 14 11:06:59 2014
[...]
dq_lat_table:0 	0 	0 	0 	0 	0 	0 	0 	0 	0 	0 	0 	0 	0 	0 	0 	0 	0 	0 	0 	0 	0 	0 	0 	0 	0 	0 	0 	0 	0 	0 	0 	
mf_lat_table:0 	0 	0 	0 	0 	0 	0 	448761 	470937 	1143 	0 	0 	0 	0 	0 	0 	0 	0 	0 	0 	0 	0 	0 	0 	0 	0 	0 	0 	0 	0 	0 	0 	
icnt2mem_lat_table:0 	0 	0 	720177 	183970 	16318 	384 	162 	25 	0 	0 	0 	0 	0 	0 	0 	0 	0 	0 	0 	0 	0 	0 	0 	
icnt2sh_lat_table:0 	0 	0 	127544 	206176 	276242 	192119 	8760 	0 	0 	0 	120 	180 	524 	903 	1877 	3765 	7602 	15157 	30043 	49829 	0 	0 	0 	
mf_lat_pw_table:0 	0 	0 	0 	0 	0 	0 	2067 	1885 	0 	0 	0 	0 	0 	0 	0 	0 	0 	0 	0 	0 	0 	0 	0 	0 	0 	0 	0 	0 	0 	0 	0 	
maximum concurrent accesses to same row:
dram[0]:         6         5         5         5        12        10        20        14         7         8         5         7        10        10         8         5 
dram[1]:         5         5         5         6        11        12        21        21         8        10         6         6        10        10         5         5 
dram[2]:         5         5         6         6        11        11        16        19         8         7         6         6        10         9         6         6 
dram[3]:         8         5         5         5        14        11        21        17         8         8         8         7        10         8         5         6 
dram[4]:         5         5         5         5         8        10        15        21         6        10         6         6        10         9         5         6 
dram[5]:         6         5         6         5        10        13        17        19         5        10         6         6        10        10         5         6 
maximum service time to same row:
dram[0]:      6886      9199      7662      6024     10559      8022      6154      6567      7696      5931      7765      9273      8744      8219      7935      7339 
dram[1]:      7432      8025      9313      6516      7772      7975      7094      6449      7413      6179      8072     10085      8733      8575      8499      7028 
dram[2]:      8916      6768      5956      8176      7764      7263      6237      8387      6038      6457      8028     11025      8112      6322      7990      8382 
dram[3]:      6404      9602      7716      8181      6294      7800      5539      6396      6249      6934      6521     10422      9248      6904      6903      8325 
dram[4]:      7101      6502      7034      8909      8366      7822      7792      7636      6237      6992     10154      9949      8723      8247      6462      8319 
dram[5]:      8002      6531      8306      8941      8934      9322     10711      8008      7212      6124      7116     10446      7507      7450      6548      6516 
average row accesses per activate:
dram[0]:  1.859403  1.863809  1.846980  1.863594  1.842055  1.838573  1.786920  1.797660  1.843807  1.831789  1.823038  1.830341  1.900659  1.884598  1.873728  1.881875 
dram[1]:  1.848720  1.855556  1.872408  1.816180  1.843165  1.825207  1.805913  1.791504  1.855072  1.850698  1.801376  1.831314  1.876775  1.880038  1.865584  1.844932 
dram[2]:  1.864312  1.864249  1.868934  1.862339  1.831387  1.824201  1.782664  1.812252  1.845413  1.846435  1.814457  1.831364  1.864369  1.857608  1.864692  1.844270 
dram[3]:  1.851610  1.880645  1.854788  1.869525  1.835240  1.847623  1.776808  1.792301  1.857010  1.860885  1.817190  1.819369  1.851639  1.866977  1.863039  1.877407 
dram[4]:  1.847673  1.865508  1.874304  1.862148  1.848202  1.838936  1.800862  1.811074  1.856405  1.863863  1.843111  1.823339  1.864025  1.875233  1.861609  1.858469 
dram[5]:  1.861789  1.851454  1.873525  1.828739  1.852955  1.846045  1.775789  1.796435  1.847682  1.847122  1.806933  1.823693  1.864778  1.871409  1.844071  1.871723 
average row locality = 388196/210505 = 1.844118
number of total memory accesses made:
dram[0]:         0         0         0         0         0         0         0         0         0         0         0         0         0         0         0         0 
dram[1]:         0         0         0         0         0         0         0         0         0         0         0         0         0         0         0         0 
dram[2]:         0         0         0         0         0         0         0         0         0         0         0         0         0         0         0         0 
dram[3]:         0         0         0         0         0         0         0         0         0         0         0         0         0         0         0         0 
dram[4]:         0         0         0         0         0         0         0         0         0         0         0         0         0         0         0         0 
dram[5]:         0         0         0         0         0         0         0         0         0         0         0         0         0         0         0         0 
total accesses: 0
min_bank_accesses = 0!
min_chip_accesses = 0!
number of total read accesses:
dram[0]:      4023      3815      4128      4044      3868      3912      4175      4089      3909      3814      3853      4009      3892      3902      3972      3850 
dram[1]:      3953      3919      4153      4041      3933      3962      4155      4073      3829      3832      3851      4013      3958      3825      4045      3875 
dram[2]:      3915      3913      4121      4045      3917      3989      4115      4052      3875      3906      3870      3960      4021      3848      4006      3919 
dram[3]:      3863      3986      4164      4012      4004      3959      4215      4177      3857      3970      3927      3968      4037      3875      4027      3934 
dram[4]:      3823      3975      4041      4039      3951      3933      4118      4225      3815      3972      3986      3885      3994      3889      3968      3939 
dram[5]:      3791      4041      3970      4047      3913      3891      4106      4271      3773      3965      4050      3872      3942      3952      3859      3938 
total reads: 381053
bank skew: 4271/3773 = 1.13
chip skew: 63975/63255 = 1.01
number of total write accesses:
dram[0]:        90        99         0         0         4         6        60        60       140       139        72        69       145       148        79        85 
dram[1]:        92        89         0         0         4         6        60        60       139       147        76        69       139       140        91        75 
dram[2]:        97        97         0         0         4         6        60        60       148       134        71        69       144       144        87        72 
dram[3]:       105        95         0         0         6         6        60        60       130       150        69        71       144       139        81        63 
dram[4]:       107       103         0         0         6         6        60        60       141       149        67        68       146       139        81        66 
dram[5]:       102        97         0         0         6         6        60        62       133       143        68        69       140       152        91        60 
total reads: 7143
min_bank_accesses = 0!
chip skew: 1199/1179 = 1.02
average mf latency per bank:
dram[0]:        397       402       352       353       943       891      1189      1212       507       505       529       526       447       448       404       405
dram[1]:        397       404       353       358       887      1038      1193      1351       508       518       528       531       447       457       403       409
dram[2]:        399       400       354       357       896      1106      1217      1244       509       510       530       531       448       448       409       405
dram[3]:        401       404       356       361      1001      1064      1300      1230       508       505       531       532       450       449       411       406
dram[4]:        395       403       350       361       866      1078      1177      1234       505       512       519       540       442       450       404       410
dram[5]:        401       402       350       358       873      1151      1191      1266       509       510       518       539       446       449       403       410
maximum mf latency per bank:
dram[0]:        588       569       622       588       584       582       583       588       553       614       572       612       555       623       622       541
dram[1]:        605       528       642       533       596       697       599       690       558       532       581       560       567       602       583       530
dram[2]:        536       517       594       549       543       602       551       700       550       539       543       638       538       605       591       586
dram[3]:        556       556       572       564       556       591       556       581       538       543       528       602       529       564       595       558
dram[4]:        589       553       580       583       533       628       546       583       533       543       580       584       568       543       533       561
dram[5]:        554       555       530       550       529       571       528       563       537       556       573       563       564       546       537       600

Number of Memory Banks Accessed per Memory Operation per Warp (from 0):
0	0	0	0	0	0	0	0	0	0	0	0	0	0	0	0	0	0	0	0	0	0	0	0	0	0	0	0	0	0	0	0	0	0	0	0	0	0	0	0	0	0	0	0	0	0	0	0	0	0	0	0	0	0	0	0	0	0	0	0	0	0	0	0	0	0	0	0	0	0	0	0	0	0	0	0	0	0	0	0	0	0	0	0	0	0	0	0	0	0	0	0	0	0	0	0	
Average # of Memory Banks Accessed per Memory Operation per Warp=-nan

position of mrq chosen
0	0	0	0	0	0	0	0	0	0	0	0	0	0	0	0	

average position of mrq chosen = -nan
Memory Partition 0: 
Cache L2_bank_000:
MSHR contents

Cache L2_bank_001:
MSHR contents

In Dram Latency Queue (total = 0): 
DRAM[0]: 16 bks, busW=4 BL=8 CL=12, tRRD=2 tCCD=6, tRCD=12 tRAS=28 tRP=12 tRC=40
n_cmd=2610289 n_nop=2412255 n_act=34890 n_pre=34874 n_req=64451 n_rd=126510 n_write=1760 bw_util=0.09828
n_activity=1159756 dram_eff=0.2212
bk0: 8046a 2530741i bk1: 7630a 2534048i bk2: 8256a 2530441i bk3: 8088a 2532424i bk4: 7736a 2534899i bk5: 7824a 2533963i bk6: 8350a 2525513i bk7: 8178a 2526826i bk8: 7818a 2530709i bk9: 7628a 2531850i bk10: 7706a 2532543i bk11: 8018a 2529762i bk12: 7784a 2531990i bk13: 7804a 2531359i bk14: 7944a 2531355i bk15: 7700a 2533981i 
dram_util_bins: 0 0 0 0 0 0 0 0 0 0
dram_eff_bins: 0 0 0 0 0 0 0 0 0 0
mrqq: max=13 avg=0.216193
Memory Partition 1: 
Cache L2_bank_002:
MSHR contents

Cache L2_bank_003:
MSHR contents

In Dram Latency Queue (total = 0): 
DRAM[1]: 16 bks, busW=4 BL=8 CL=12, tRRD=2 tCCD=6, tRCD=12 tRAS=28 tRP=12 tRC=40
n_cmd=2610289 n_nop=2411540 n_act=35090 n_pre=35074 n_req=64604 n_rd=126834 n_write=1751 bw_util=0.09852
n_activity=1162408 dram_eff=0.2212
bk0: 7906a 2531499i bk1: 7838a 2532418i bk2: 8306a 2530553i bk3: 8082a 2530864i bk4: 7866a 2533596i bk5: 7924a 2532447i bk6: 8310a 2526211i bk7: 8146a 2527226i bk8: 7658a 2533110i bk9: 7664a 2531864i bk10: 7702a 2532006i bk11: 8026a 2529977i bk12: 7916a 2530437i bk13: 7650a 2532840i bk14: 8090a 2529742i bk15: 7750a 2532589i 
dram_util_bins: 0 0 0 0 0 0 0 0 0 0
dram_eff_bins: 0 0 0 0 0 0 0 0 0 0
mrqq: max=10 avg=0.216117
Memory Partition 2: 
Cache L2_bank_004:
MSHR contents

Cache L2_bank_005:
MSHR contents

In Dram Latency Queue (total = 0): 
DRAM[2]: 16 bks, busW=4 BL=8 CL=12, tRRD=2 tCCD=6, tRCD=12 tRAS=28 tRP=12 tRC=40
n_cmd=2610289 n_nop=2411397 n_act=35104 n_pre=35088 n_req=64665 n_rd=126944 n_write=1756 bw_util=0.09861
n_activity=1160257 dram_eff=0.2218
bk0: 7830a 2532415i bk1: 7826a 2532640i bk2: 8242a 2531232i bk3: 8090a 2531981i bk4: 7834a 2533823i bk5: 7978a 2532149i bk6: 8230a 2525423i bk7: 8104a 2528208i bk8: 7750a 2531612i bk9: 7812a 2530748i bk10: 7740a 2532135i bk11: 7920a 2530476i bk12: 8042a 2528960i bk13: 7696a 2531755i bk14: 8012a 2530580i bk15: 7838a 2532030i 
dram_util_bins: 0 0 0 0 0 0 0 0 0 0
dram_eff_bins: 0 0 0 0 0 0 0 0 0 0
mrqq: max=16 avg=0.216628
Memory Partition 3: 
Cache L2_bank_006:
MSHR contents

Cache L2_bank_007:
MSHR contents

In Dram Latency Queue (total = 0): 
DRAM[3]: 16 bks, busW=4 BL=8 CL=12, tRRD=2 tCCD=6, tRCD=12 tRAS=28 tRP=12 tRC=40
n_cmd=2610289 n_nop=2409956 n_act=35327 n_pre=35311 n_req=65154 n_rd=127950 n_write=1745 bw_util=0.09937
n_activity=1167256 dram_eff=0.2222
bk0: 7726a 2533371i bk1: 7972a 2531763i bk2: 8328a 2530009i bk3: 8024a 2532844i bk4: 8008a 2532170i bk5: 7918a 2533474i bk6: 8430a 2524294i bk7: 8354a 2524932i bk8: 7714a 2532196i bk9: 7940a 2530105i bk10: 7854a 2531196i bk11: 7936a 2530072i bk12: 8074a 2527824i bk13: 7750a 2531434i bk14: 8054a 2530255i bk15: 7868a 2532582i 
dram_util_bins: 0 0 0 0 0 0 0 0 0 0
dram_eff_bins: 0 0 0 0 0 0 0 0 0 0
mrqq: max=11 avg=0.216029
Memory Partition 4: 
Cache L2_bank_008:
MSHR contents

Cache L2_bank_009:
MSHR contents

In Dram Latency Queue (total = 0): 
DRAM[4]: 16 bks, busW=4 BL=8 CL=12, tRRD=2 tCCD=6, tRCD=12 tRAS=28 tRP=12 tRC=40
n_cmd=2610289 n_nop=2411405 n_act=35015 n_pre=34999 n_req=64752 n_rd=127106 n_write=1764 bw_util=0.09874
n_activity=1161439 dram_eff=0.2219
bk0: 7646a 2533665i bk1: 7950a 2531312i bk2: 8082a 2532774i bk3: 8078a 2532460i bk4: 7902a 2533347i bk5: 7866a 2532911i bk6: 8236a 2527239i bk7: 8450a 2524623i bk8: 7630a 2532624i bk9: 7944a 2529857i bk10: 7972a 2530706i bk11: 7770a 2531940i bk12: 7988a 2529640i bk13: 7778a 2531433i bk14: 7936a 2531454i bk15: 7878a 2531819i 
dram_util_bins: 0 0 0 0 0 0 0 0 0 0
dram_eff_bins: 0 0 0 0 0 0 0 0 0 0
mrqq: max=13 avg=0.216879
Memory Partition 5: 
Cache L2_bank_010:
MSHR contents

Cache L2_bank_011:
MSHR contents

In Dram Latency Queue (total = 0): 
DRAM[5]: 16 bks, busW=4 BL=8 CL=12, tRRD=2 tCCD=6, tRCD=12 tRAS=28 tRP=12 tRC=40
n_cmd=2610289 n_nop=2411629 n_act=35080 n_pre=35064 n_req=64570 n_rd=126762 n_write=1754 bw_util=0.09847
n_activity=1163330 dram_eff=0.2209
bk0: 7582a 2534861i bk1: 8082a 2529822i bk2: 7940a 2534056i bk3: 8094a 2531329i bk4: 7826a 2534699i bk5: 7782a 2534276i bk6: 8212a 2526627i bk7: 8542a 2522894i bk8: 7546a 2533253i bk9: 7930a 2529590i bk10: 8100a 2528261i bk11: 7744a 2531422i bk12: 7884a 2530821i bk13: 7904a 2530240i bk14: 7718a 2532355i bk15: 7876a 2532375i 
dram_util_bins: 0 0 0 0 0 0 0 0 0 0
dram_eff_bins: 0 0 0 0 0 0 0 0 0 0
mrqq: max=13 avg=0.216329

========= L2 cache stats =========
L2_cache_bank[0]: Access = 75680, Miss = 31820, Miss_rate = 0.420, Pending_hits = 532, Reservation_fails = 1762
L2_cache_bank[1]: Access = 73378, Miss = 31435, Miss_rate = 0.428, Pending_hits = 534, Reservation_fails = 1593
L2_cache_bank[2]: Access = 74366, Miss = 31877, Miss_rate = 0.429, Pending_hits = 525, Reservation_fails = 2107
L2_cache_bank[3]: Access = 79544, Miss = 31540, Miss_rate = 0.397, Pending_hits = 537, Reservation_fails = 1929
L2_cache_bank[4]: Access = 74305, Miss = 31840, Miss_rate = 0.429, Pending_hits = 532, Reservation_fails = 1610
L2_cache_bank[5]: Access = 79057, Miss = 31632, Miss_rate = 0.400, Pending_hits = 535, Reservation_fails = 1188
L2_cache_bank[6]: Access = 79758, Miss = 32094, Miss_rate = 0.402, Pending_hits = 537, Reservation_fails = 1609
L2_cache_bank[7]: Access = 78113, Miss = 31881, Miss_rate = 0.408, Pending_hits = 514, Reservation_fails = 1919
L2_cache_bank[8]: Access = 74025, Miss = 31696, Miss_rate = 0.428, Pending_hits = 534, Reservation_fails = 1635
L2_cache_bank[9]: Access = 78122, Miss = 31857, Miss_rate = 0.408, Pending_hits = 530, Reservation_fails = 1688
L2_cache_bank[10]: Access = 73402, Miss = 31404, Miss_rate = 0.428, Pending_hits = 527, Reservation_fails = 1832
L2_cache_bank[11]: Access = 81286, Miss = 31977, Miss_rate = 0.393, Pending_hits = 523, Reservation_fails = 1668
L2_total_cache_accesses = 921036
L2_total_cache_misses = 381053
L2_total_cache_miss_rate = 0.4137
L2_total_cache_pending_hits = 6360
L2_total_cache_reservation_fails = 20540
L2_total_cache_breakdown:
	L2_cache_stats_breakdown[GLOBAL_ACC_R][HIT] = 427207
	L2_cache_stats_breakdown[GLOBAL_ACC_R][HIT_RESERVED] = 4004
	L2_cache_stats_breakdown[GLOBAL_ACC_R][MISS] = 379600
	L2_cache_stats_breakdown[GLOBAL_ACC_R][RESERVATION_FAIL] = 6817
	L2_cache_stats_breakdown[CONST_ACC_R][HIT] = 26
	L2_cache_stats_breakdown[CONST_ACC_R][HIT_RESERVED] = 3
	L2_cache_stats_breakdown[CONST_ACC_R][MISS] = 1
	L2_cache_stats_breakdown[CONST_ACC_R][RESERVATION_FAIL] = 100
	L2_cache_stats_breakdown[GLOBAL_ACC_W][HIT] = 106244
	L2_cache_stats_breakdown[GLOBAL_ACC_W][HIT_RESERVED] = 2317
	L2_cache_stats_breakdown[GLOBAL_ACC_W][MISS] = 1439
	L2_cache_stats_breakdown[GLOBAL_ACC_W][RESERVATION_FAIL] = 12706
	L2_cache_stats_breakdown[INST_ACC_R][HIT] = 146
	L2_cache_stats_breakdown[INST_ACC_R][HIT_RESERVED] = 36
	L2_cache_stats_breakdown[INST_ACC_R][MISS] = 13
	L2_cache_stats_breakdown[INST_ACC_R][RESERVATION_FAIL] = 917
L2_cache_data_port_util = 0.077
L2_cache_fill_port_util = 0.064

icnt_total_pkts_mem_to_simt=4165120
icnt_total_pkts_simt_to_mem=1031036
LD_mem_lat_dist  0 0 0 0 0 0 0 0 0 0 0 0 0 0 0 0 0 0 0 0 0 0 0 0 0 0 0
ST_mem_lat_dist  0 0 0 0 0 0 0 0 0 0 0 0 0 0 0 0 0 0 0 0 0 0 0 0 0 0 0
----------------------------Interconnect-DETAILS--------------------------------
Class 0:
Packet latency average = 24.7691
	minimum = 6
	maximum = 180
Network latency average = 19.9845
	minimum = 6
	maximum = 147
Slowest packet = 919213
Flit latency average = 21.6309
	minimum = 6
	maximum = 143
Slowest flit = 5026294
Fragmentation average = 6.05356e-05
	minimum = 0
	maximum = 48
Injected packet rate average = 0.0366796
	minimum = 0.032712 (at node 7)
	maximum = 0.0440021 (at node 26)
Accepted packet rate average = 0.0366796
	minimum = 0.032712 (at node 7)
	maximum = 0.0440021 (at node 26)
Injected flit rate average = 0.104091
	minimum = 0.036277 (at node 7)
	maximum = 0.202197 (at node 26)
Accepted flit rate average= 0.104091
	minimum = 0.0416084 (at node 25)
	maximum = 0.151918 (at node 8)
Injected packet length average = 2.83785
Accepted packet length average = 2.83785
Total in-flight flits = 0 (0 measured)
====== Overall Traffic Statistics ======
====== Traffic class 0 ======
Packet latency average = 25.6442 (2 samples)
	minimum = 6 (2 samples)
	maximum = 181 (2 samples)
Network latency average = 20.6448 (2 samples)
	minimum = 6 (2 samples)
	maximum = 147 (2 samples)
Flit latency average = 22.4882 (2 samples)
	minimum = 6 (2 samples)
	maximum = 143 (2 samples)
Fragmentation average = 7.716e-05 (2 samples)
	minimum = 0 (2 samples)
	maximum = 67 (2 samples)
Injected packet rate average = 0.0346148 (2 samples)
	minimum = 0.0308969 (2 samples)
	maximum = 0.0412573 (2 samples)
Accepted packet rate average = 0.0346148 (2 samples)
	minimum = 0.0308969 (2 samples)
	maximum = 0.0412573 (2 samples)
Injected flit rate average = 0.097675 (2 samples)
	minimum = 0.0345924 (2 samples)
	maximum = 0.187811 (2 samples)
Accepted flit rate average = 0.097675 (2 samples)
	minimum = 0.0399914 (2 samples)
	maximum = 0.142197 (2 samples)
Injected packet size average = 2.82177 (2 samples)
Accepted packet size average = 2.82177 (2 samples)
Hops average = 1 (2 samples)
----------------------------END-of-Interconnect-DETAILS-------------------------


gpgpu_simulation_time = 0 days, 1 hrs, 56 min, 30 sec (6990 sec)
gpgpu_simulation_rate = 77583 (inst/sec)
gpgpu_simulation_rate = 282 (cycle/sec)
GPGPU-Sim: synchronize waiting for inactive GPU simulation
GPGPU-Sim API: Stream Manager State
GPGPU-Sim: detected inactive GPU simulation thread
Time spent in different stages of GPU_CUDA KERNEL:
 0.000142999997 s,  0.000005733903 % : GPU: SET DEVICE / DRIVER INIT
 0.000003000000 s,  0.000000120292 % : GPU MEM: ALO
 1.584751009941 s,  0.063544116914 % : GPU MEM: COPY IN
2492.351318359375 s, 99.936363220215 % : GPU: KERNEL
 0.001832999988 s,  0.000073498210 % : GPU MEM: COPY OUT
 0.000000000000 s,  0.000000000000 % : GPU MEM: FRE
Total time:
2493.938232421875 s
> > > > > > > > > > 
