

        *** GPGPU-Sim Simulator Version 3.2.2  [build 17315] ***


GPGPU-Sim PTX: simulation mode 0 (can change with PTX_SIM_MODE_FUNC environment variable:
               1=functional simulation only, 0=detailed performance simulator)
GPGPU-Sim: Configuration options:

-network_mode                           1 # Interconnection network mode
-inter_config_file   config_fermi_islip.icnt # Interconnection network config file
-gpgpu_ptx_use_cuobjdump                    1 # Use cuobjdump to extract ptx and sass from binaries
-gpgpu_experimental_lib_support                    0 # Try to extract code from cuda libraries [Broken because of unknown cudaGetExportTable]
-gpgpu_ptx_convert_to_ptxplus                    0 # Convert SASS (native ISA) to ptxplus and run ptxplus
-gpgpu_ptx_force_max_capability                   20 # Force maximum compute capability
-gpgpu_ptx_inst_debug_to_file                    0 # Dump executed instructions' debug information to file
-gpgpu_ptx_inst_debug_file       inst_debug.txt # Executed instructions' debug output file
-gpgpu_ptx_inst_debug_thread_uid                    1 # Thread UID for executed instructions' debug output
-gpgpu_simd_model                       1 # 1 = post-dominator
-gpgpu_shader_core_pipeline              1536:32 # shader core pipeline config, i.e., {<nthread>:<warpsize>}
-gpgpu_tex_cache:l1  4:128:24,L:R:m:N,F:128:4,128:2 # per-shader L1 texture cache  (READ-ONLY) config  {<nsets>:<bsize>:<assoc>,<rep>:<wr>:<alloc>:<wr_alloc>,<mshr>:<N>:<merge>,<mq>:<rf>}
-gpgpu_const_cache:l1 64:64:2,L:R:f:N,A:2:32,4 # per-shader L1 constant memory cache  (READ-ONLY) config  {<nsets>:<bsize>:<assoc>,<rep>:<wr>:<alloc>:<wr_alloc>,<mshr>:<N>:<merge>,<mq>} 
-gpgpu_cache:il1     4:128:4,L:R:f:N,A:2:32,4 # shader L1 instruction cache config  {<nsets>:<bsize>:<assoc>,<rep>:<wr>:<alloc>:<wr_alloc>,<mshr>:<N>:<merge>,<mq>} 
-gpgpu_cache:dl1     32:128:6,M:L:m:N,A:32:8,8 # per-shader L1 data cache config  {<nsets>:<bsize>:<assoc>,<rep>:<wr>:<alloc>:<wr_alloc>,<mshr>:<N>:<merge>,<mq> | none}
-gpgpu_cache:dl1PrefL1                 none # per-shader L1 data cache config  {<nsets>:<bsize>:<assoc>,<rep>:<wr>:<alloc>:<wr_alloc>,<mshr>:<N>:<merge>,<mq> | none}
-gpgpu_cache:dl1PreShared                 none # per-shader L1 data cache config  {<nsets>:<bsize>:<assoc>,<rep>:<wr>:<alloc>:<wr_alloc>,<mshr>:<N>:<merge>,<mq> | none}
-gmem_skip_L1D                          0 # global memory access skip L1D cache (implements -Xptxas -dlcm=cg, default=no skip)
-gpgpu_perfect_mem                      0 # enable perfect memory mode (no cache miss)
-n_regfile_gating_group                    4 # group of lanes that should be read/written together)
-gpgpu_clock_gated_reg_file                    0 # enable clock gated reg file for power calculations
-gpgpu_clock_gated_lanes                    0 # enable clock gated lanes for power calculations
-gpgpu_shader_registers                32768 # Number of registers per shader core. Limits number of concurrent CTAs. (default 8192)
-gpgpu_shader_cta                       8 # Maximum number of concurrent CTAs in shader (default 8)
-gpgpu_n_clusters                      15 # number of processing clusters
-gpgpu_n_cores_per_cluster                    1 # number of simd cores per cluster
-gpgpu_n_cluster_ejection_buffer_size                    8 # number of packets in ejection buffer
-gpgpu_n_ldst_response_buffer_size                    2 # number of response packets in ld/st unit ejection buffer
-gpgpu_shmem_size                   16384 # Size of shared memory per shader core (default 16kB)
-gpgpu_shmem_size                   49152 # Size of shared memory per shader core (default 16kB)
-gpgpu_shmem_size_PrefL1                16384 # Size of shared memory per shader core (default 16kB)
-gpgpu_shmem_size_PrefShared                16384 # Size of shared memory per shader core (default 16kB)
-gpgpu_shmem_num_banks                   32 # Number of banks in the shared memory in each shader core (default 16)
-gpgpu_shmem_limited_broadcast                    0 # Limit shared memory to do one broadcast per cycle (default on)
-gpgpu_shmem_warp_parts                    1 # Number of portions a warp is divided into for shared memory bank conflict check 
-gpgpu_warpdistro_shader                   -1 # Specify which shader core to collect the warp size distribution from
-gpgpu_warp_issue_shader                    0 # Specify which shader core to collect the warp issue distribution from
-gpgpu_local_mem_map                    1 # Mapping from local memory space address to simulated GPU physical address space (default = enabled)
-gpgpu_num_reg_banks                   16 # Number of register banks (default = 8)
-gpgpu_reg_bank_use_warp_id                    0 # Use warp ID in mapping registers to banks (default = off)
-gpgpu_operand_collector_num_units_sp                    6 # number of collector units (default = 4)
-gpgpu_operand_collector_num_units_sfu                    8 # number of collector units (default = 4)
-gpgpu_operand_collector_num_units_mem                    2 # number of collector units (default = 2)
-gpgpu_operand_collector_num_units_gen                    0 # number of collector units (default = 0)
-gpgpu_operand_collector_num_in_ports_sp                    2 # number of collector unit in ports (default = 1)
-gpgpu_operand_collector_num_in_ports_sfu                    1 # number of collector unit in ports (default = 1)
-gpgpu_operand_collector_num_in_ports_mem                    1 # number of collector unit in ports (default = 1)
-gpgpu_operand_collector_num_in_ports_gen                    0 # number of collector unit in ports (default = 0)
-gpgpu_operand_collector_num_out_ports_sp                    2 # number of collector unit in ports (default = 1)
-gpgpu_operand_collector_num_out_ports_sfu                    1 # number of collector unit in ports (default = 1)
-gpgpu_operand_collector_num_out_ports_mem                    1 # number of collector unit in ports (default = 1)
-gpgpu_operand_collector_num_out_ports_gen                    0 # number of collector unit in ports (default = 0)
-gpgpu_coalesce_arch                   13 # Coalescing arch (default = 13, anything else is off for now)
-gpgpu_num_sched_per_core                    2 # Number of warp schedulers per core
-gpgpu_max_insn_issue_per_warp                    1 # Max number of instructions that can be issued per warp in one cycle by scheduler
-gpgpu_simt_core_sim_order                    1 # Select the simulation order of cores in a cluster (0=Fix, 1=Round-Robin)
-gpgpu_pipeline_widths        2,1,1,2,1,1,2 # Pipeline widths ID_OC_SP,ID_OC_SFU,ID_OC_MEM,OC_EX_SP,OC_EX_SFU,OC_EX_MEM,EX_WB
-gpgpu_num_sp_units                     2 # Number of SP units (default=1)
-gpgpu_num_sfu_units                    1 # Number of SF units (default=1)
-gpgpu_num_mem_units                    1 # Number if ldst units (default=1) WARNING: not hooked up to anything
-gpgpu_scheduler                      lrr # Scheduler configuration: < lrr | gto | two_level_active > If two_level_active:<num_active_warps>:<inner_prioritization>:<outer_prioritization>For complete list of prioritization values see shader.h enum scheduler_prioritization_typeDefault: gto
-gpgpu_dram_scheduler                    1 # 0 = fifo, 1 = FR-FCFS (defaul)
-gpgpu_dram_partition_queues              8:8:8:8 # i2$:$2d:d2$:$2i
-l2_ideal                               0 # Use a ideal L2 cache that always hit
-gpgpu_cache:dl2     64:128:8,L:B:m:W,A:32:4,4:0,32 # unified banked L2 data cache config  {<nsets>:<bsize>:<assoc>,<rep>:<wr>:<alloc>:<wr_alloc>,<mshr>:<N>:<merge>,<mq>}
-gpgpu_cache:dl2_texture_only                    0 # L2 cache used for texture only
-gpgpu_n_mem                            6 # number of memory modules (e.g. memory controllers) in gpu
-gpgpu_n_sub_partition_per_mchannel                    2 # number of memory subpartition in each memory module
-gpgpu_n_mem_per_ctrlr                    2 # number of memory chips per memory controller
-gpgpu_memlatency_stat                   14 # track and display latency statistics 0x2 enables MC, 0x4 enables queue logs
-gpgpu_frfcfs_dram_sched_queue_size                   16 # 0 = unlimited (default); # entries per chip
-gpgpu_dram_return_queue_size                  116 # 0 = unlimited (default); # entries per chip
-gpgpu_dram_buswidth                    4 # default = 4 bytes (8 bytes per cycle at DDR)
-gpgpu_dram_burst_length                    8 # Burst length of each DRAM request (default = 4 data bus cycle)
-dram_data_command_freq_ratio                    4 # Frequency ratio between DRAM data bus and command bus (default = 2 times, i.e. DDR)
-gpgpu_dram_timing_opt nbk=16:CCD=2:RRD=6:RCD=12:RAS=28:RP=12:RC=40: CL=12:WL=4:CDLR=5:WR=12:nbkgrp=4:CCDL=3:RTPL=2 # DRAM timing parameters = {nbk:tCCD:tRRD:tRCD:tRAS:tRP:tRC:CL:WL:tCDLR:tWR:nbkgrp:tCCDL:tRTPL}
-rop_latency                          120 # ROP queue latency (default 85)
-dram_latency                         100 # DRAM latency (default 30)
-gpgpu_mem_addr_mapping dramid@8;00000000.00000000.00000000.00000000.0000RRRR.RRRRRRRR.BBBCCCCB.CCSSSSSS # mapping memory address to dram model {dramid@<start bit>;<memory address map>}
-gpgpu_mem_addr_test                    0 # run sweep test to check address mapping for aliased address
-gpgpu_mem_address_mask                    1 # 0 = old addressing mask, 1 = new addressing mask, 2 = new add. mask + flipped bank sel and chip sel bits
-gpuwattch_xml_file  gpuwattch_gtx480.xml # GPUWattch XML file
-power_simulation_enabled                    1 # Turn on power simulator (1=On, 0=Off)
-power_per_cycle_dump                    0 # Dump detailed power output each cycle
-power_trace_enabled                    0 # produce a file for the power trace (1=On, 0=Off)
-power_trace_zlevel                     6 # Compression level of the power trace output log (0=no comp, 9=highest)
-steady_power_levels_enabled                    0 # produce a file for the steady power levels (1=On, 0=Off)
-steady_state_definition                  8:4 # allowed deviation:number of samples
-gpgpu_max_cycle                        0 # terminates gpu simulation early (0 = no limit)
-gpgpu_max_insn                         0 # terminates gpu simulation early (0 = no limit)
-gpgpu_max_cta                          0 # terminates gpu simulation early (0 = no limit)
-gpgpu_runtime_stat                   500 # display runtime statistics such as dram utilization {<freq>:<flag>}
-liveness_message_freq                    1 # Minimum number of seconds between simulation liveness messages (0 = always print)
-gpgpu_flush_l1_cache                    0 # Flush L1 cache at the end of each kernel call
-gpgpu_flush_l2_cache                    0 # Flush L2 cache at the end of each kernel call
-gpgpu_deadlock_detect                    1 # Stop the simulation at deadlock (1=on (default), 0=off)
-gpgpu_ptx_instruction_classification                    0 # if enabled will classify ptx instruction types per kernel (Max 255 kernels now)
-gpgpu_ptx_sim_mode                     0 # Select between Performance (default) or Functional simulation (1)
-gpgpu_clock_domains 700.0:700.0:700.0:924.0 # Clock Domain Frequencies in MhZ {<Core Clock>:<ICNT Clock>:<L2 Clock>:<DRAM Clock>}
-gpgpu_max_concurrent_kernel                    8 # maximum kernels that can run concurrently on GPU
-gpgpu_cflog_interval                    0 # Interval between each snapshot in control flow logger
-visualizer_enabled                     0 # Turn on visualizer output (1=On, 0=Off)
-visualizer_outputfile                 NULL # Specifies the output log file for visualizer
-visualizer_zlevel                      6 # Compression level of the visualizer output log (0=no comp, 9=highest)
-trace_enabled                          0 # Turn on traces
-trace_components                    none # comma seperated list of traces to enable. Complete list found in trace_streams.tup. Default none
-trace_sampling_core                    0 # The core which is printed using CORE_DPRINTF. Default 0
-trace_sampling_memory_partition                   -1 # The memory partition which is printed using MEMPART_DPRINTF. Default -1 (i.e. all)
-enable_ptx_file_line_stats                    1 # Turn on PTX source line statistic profiling. (1 = On)
-ptx_line_stats_filename gpgpu_inst_stats.txt # Output file for PTX source line statistics.
-save_embedded_ptx                      0 # saves ptx files embedded in binary as <n>.ptx
-keep                                   0 # keep intermediate files created by GPGPU-Sim when interfacing with external programs
-gpgpu_ptx_save_converted_ptxplus                    0 # Saved converted ptxplus to a file
-ptx_opcode_latency_int         4,13,4,5,145 # Opcode latencies for integers <ADD,MAX,MUL,MAD,DIV>Default 1,1,19,25,145
-ptx_opcode_latency_fp          4,13,4,5,39 # Opcode latencies for single precision floating points <ADD,MAX,MUL,MAD,DIV>Default 1,1,1,1,30
-ptx_opcode_latency_dp         8,19,8,8,330 # Opcode latencies for double precision floating points <ADD,MAX,MUL,MAD,DIV>Default 8,8,8,8,335
-ptx_opcode_initiation_int            1,2,2,1,8 # Opcode initiation intervals for integers <ADD,MAX,MUL,MAD,DIV>Default 1,1,4,4,32
-ptx_opcode_initiation_fp            1,2,1,1,4 # Opcode initiation intervals for single precision floating points <ADD,MAX,MUL,MAD,DIV>Default 1,1,1,1,5
-ptx_opcode_initiation_dp         8,16,8,8,130 # Opcode initiation intervals for double precision floating points <ADD,MAX,MUL,MAD,DIV>Default 8,8,8,8,130
DRAM Timing Options:
nbk                                    16 # number of banks
CCD                                     2 # column to column delay
RRD                                     6 # minimal delay between activation of rows in different banks
RCD                                    12 # row to column delay
RAS                                    28 # time needed to activate row
RP                                     12 # time needed to precharge (deactivate) row
RC                                     40 # row cycle time
CDLR                                    5 # switching from write to read (changes tWTR)
WR                                     12 # last data-in to row precharge
CL                                     12 # CAS latency
WL                                      4 # Write latency
nbkgrp                                  4 # number of bank groups
CCDL                                    3 # column to column delay between accesses to different bank groups
RTPL                                    2 # read to precharge delay between accesses to different bank groups
Total number of memory sub partition = 12
addr_dec_mask[CHIP]  = 0000000000000000 	high:64 low:0
addr_dec_mask[BK]    = 000000000000e100 	high:16 low:8
addr_dec_mask[ROW]   = 000000000fff0000 	high:28 low:16
addr_dec_mask[COL]   = 0000000000001eff 	high:13 low:0
addr_dec_mask[BURST] = 000000000000003f 	high:6 low:0
sub_partition_id_mask = 0000000000000100
GPGPU-Sim uArch: clock freqs: 700000000.000000:700000000.000000:700000000.000000:924000000.000000
GPGPU-Sim uArch: clock periods: 0.00000000142857142857:0.00000000142857142857:0.00000000142857142857:0.00000000108225108225
*** Initializing Memory Statistics ***
GPGPU-Sim uArch: interconnect node map (shaderID+MemID to icntID)
GPGPU-Sim uArch: Memory nodes ID start from index: 15
GPGPU-Sim uArch:    0   1   2   3   4
GPGPU-Sim uArch:    5   6   7   8   9
GPGPU-Sim uArch:   10  11  12  13  14
GPGPU-Sim uArch:   15  16  17  18  19
GPGPU-Sim uArch:   20  21  22  23  24
GPGPU-Sim uArch:   25  26
GPGPU-Sim uArch: interconnect node reverse map (icntID to shaderID+MemID)
GPGPU-Sim uArch: Memory nodes start from ID: 15
GPGPU-Sim uArch:    0   1   2   3   4
GPGPU-Sim uArch:    5   6   7   8   9
GPGPU-Sim uArch:   10  11  12  13  14
GPGPU-Sim uArch:   15  16  17  18  19
GPGPU-Sim uArch:   20  21  22  23  24
GPGPU-Sim uArch:   25  26
5dfc00447550946b86c573f0833154d9  /home/xlxie/workdir_Aug1st_2014/bm/rodinia_2.4_sim_1.0/cuda/b+tree.tmp.4/b+tree.out
GPGPU-Sim uArch: performance model initialization complete.
GPGPU-Sim PTX: __cudaRegisterFatBinary, fat_cubin_handle = 1, filename=./kernel/kernel_gpu_cuda_wrapper.cu
self exe links to: /home/xlxie/workdir_Aug1st_2014/bm/rodinia_2.4_sim_1.0/cuda/b+tree.tmp.4/b+tree.out
Running md5sum using "md5sum /home/xlxie/workdir_Aug1st_2014/bm/rodinia_2.4_sim_1.0/cuda/b+tree.tmp.4/b+tree.out "
Running cuobjdump using "$CUDA_INSTALL_PATH/bin/cuobjdump -ptx -elf -sass /home/xlxie/workdir_Aug1st_2014/bm/rodinia_2.4_sim_1.0/cuda/b+tree.tmp.4/b+tree.out > _cuobjdump_complete_output_On1pkq"
Parsing file _cuobjdump_complete_output_On1pkq
######### cuobjdump parser ########
## Adding new section PTX
Adding ptx filename: _cuobjdump_1.ptx
Adding arch: sm_20
Adding identifier: ./kernel/kernel_gpu_cuda_wrapper.cu
## Adding new section PTX
Adding ptx filename: _cuobjdump_2.ptx
Adding arch: sm_20
Adding identifier: ./kernel/kernel_gpu_cuda_wrapper_2.cu
## Adding new section PTX
Adding ptx filename: _cuobjdump_3.ptx
Adding arch: sm_20
Adding identifier: ./util/cuda/cuda.cu
Done parsing!!!
GPGPU-Sim PTX: __cudaRegisterFunction findK : hostFun 0x0x405e20, fat_cubin_handle = 1
GPGPU-Sim PTX: instruction assembly for function 'findK'...   done.
GPGPU-Sim PTX: finding reconvergence points for 'findK'...
GPGPU-Sim PTX: Finding dominators for 'findK'...
GPGPU-Sim PTX: Finding immediate dominators for 'findK'...
GPGPU-Sim PTX: Finding postdominators for 'findK'...
GPGPU-Sim PTX: Finding immediate postdominators for 'findK'...
GPGPU-Sim PTX: pre-decoding instructions for 'findK'...
GPGPU-Sim PTX: reconvergence points for findK...
GPGPU-Sim PTX:  1 (potential) branch divergence @  PC=0x038 (_1.ptx:74) @%p1 bra $Lt_0_7682;
GPGPU-Sim PTX:    immediate post dominator      @  PC=0x1e8 (_1.ptx:141) ld.global.u64 %rd32, [%rd12+0];
GPGPU-Sim PTX:  2 (potential) branch divergence @  PC=0x0d0 (_1.ptx:96) @%p3 bra $Lt_0_7938;
GPGPU-Sim PTX:    immediate post dominator      @  PC=0x150 (_1.ptx:116) bar.sync 0;
GPGPU-Sim PTX:  3 (potential) branch divergence @  PC=0x0e8 (_1.ptx:99) @%p4 bra $Lt_0_7938;
GPGPU-Sim PTX:    immediate post dominator      @  PC=0x150 (_1.ptx:116) bar.sync 0;
GPGPU-Sim PTX:  4 (potential) branch divergence @  PC=0x140 (_1.ptx:110) @%p5 bra $Lt_0_7938;
GPGPU-Sim PTX:    immediate post dominator      @  PC=0x150 (_1.ptx:116) bar.sync 0;
GPGPU-Sim PTX:  5 (potential) branch divergence @  PC=0x158 (_1.ptx:117) @!%p2 bra $Lt_0_6402;
GPGPU-Sim PTX:    immediate post dominator      @  PC=0x180 (_1.ptx:125) bar.sync 0;
GPGPU-Sim PTX:  6 (potential) branch divergence @  PC=0x198 (_1.ptx:129) @%p6 bra $Lt_0_5634;
GPGPU-Sim PTX:    immediate post dominator      @  PC=0x1a0 (_1.ptx:130) bra.uni $Lt_0_5122;
GPGPU-Sim PTX:  7 (potential) branch divergence @  PC=0x1a0 (_1.ptx:130) bra.uni $Lt_0_5122;
GPGPU-Sim PTX:    immediate post dominator      @  PC=0x1e8 (_1.ptx:141) ld.global.u64 %rd32, [%rd12+0];
GPGPU-Sim PTX:  8 (potential) branch divergence @  PC=0x220 (_1.ptx:148) @%p7 bra $Lt_0_7170;
GPGPU-Sim PTX:    immediate post dominator      @  PC=0x270 (_1.ptx:161) exit;
GPGPU-Sim PTX: ... end of reconvergence points for findK
GPGPU-Sim PTX: ... done pre-decoding instructions for 'findK'.
GPGPU-Sim PTX: finished parsing EMBEDDED .ptx file _1.ptx
Adding _cuobjdump_1.ptx with cubin handle 1
GPGPU-Sim PTX: extracting embedded .ptx to temporary file "_ptx_hSb1YU"
Running: cat _ptx_hSb1YU | sed 's/.version 1.5/.version 1.4/' | sed 's/, texmode_independent//' | sed 's/\(\.extern \.const\[1\] .b8 \w\+\)\[\]/\1\[1\]/' | sed 's/const\[.\]/const\[0\]/g' > _ptx2_4DsDDp
GPGPU-Sim PTX: generating ptxinfo using "$CUDA_INSTALL_PATH/bin/ptxas --gpu-name=sm_20 -v _ptx2_4DsDDp --output-file  /dev/null 2> _ptx_hSb1YUinfo"
GPGPU-Sim PTX: Kernel 'findK' : regs=18, lmem=0, smem=0, cmem=96
GPGPU-Sim PTX: removing ptxinfo using "rm -f _ptx_hSb1YU _ptx2_4DsDDp _ptx_hSb1YUinfo"
GPGPU-Sim PTX: loading globals with explicit initializers... 
GPGPU-Sim PTX: finished loading globals (0 bytes total).
GPGPU-Sim PTX: loading constants with explicit initializers...  done.
GPGPU-Sim PTX: __cudaRegisterFatBinary, fat_cubin_handle = 2, filename=./kernel/kernel_gpu_cuda_wrapper_2.cu
GPGPU-Sim PTX: __cudaRegisterFunction findRangeK : hostFun 0x0x406530, fat_cubin_handle = 2
GPGPU-Sim PTX: instruction assembly for function 'findRangeK'...   done.
GPGPU-Sim PTX: finding reconvergence points for 'findRangeK'...
GPGPU-Sim PTX: Finding dominators for 'findRangeK'...
GPGPU-Sim PTX: Finding immediate dominators for 'findRangeK'...
GPGPU-Sim PTX: Finding postdominators for 'findRangeK'...
GPGPU-Sim PTX: Finding immediate postdominators for 'findRangeK'...
GPGPU-Sim PTX: pre-decoding instructions for 'findRangeK'...
GPGPU-Sim PTX: reconvergence points for findRangeK...
GPGPU-Sim PTX:  1 (potential) branch divergence @  PC=0x2c0 (_2.ptx:79) @%p1 bra $Lt_0_11778;
GPGPU-Sim PTX:    immediate post dominator      @  PC=0x528 (_2.ptx:174) ld.global.u64 %rd43, [%rd15+0];
GPGPU-Sim PTX:  2 (potential) branch divergence @  PC=0x368 (_2.ptx:103) @%p3 bra $Lt_0_12034;
GPGPU-Sim PTX:    immediate post dominator      @  PC=0x3c8 (_2.ptx:119) ld.global.s32 %r8, [%rd14+0];
GPGPU-Sim PTX:  3 (potential) branch divergence @  PC=0x380 (_2.ptx:106) @%p4 bra $Lt_0_12034;
GPGPU-Sim PTX:    immediate post dominator      @  PC=0x3c8 (_2.ptx:119) ld.global.s32 %r8, [%rd14+0];
GPGPU-Sim PTX:  4 (potential) branch divergence @  PC=0x3a8 (_2.ptx:111) @%p5 bra $Lt_0_12034;
GPGPU-Sim PTX:    immediate post dominator      @  PC=0x3c8 (_2.ptx:119) ld.global.s32 %r8, [%rd14+0];
GPGPU-Sim PTX:  5 (potential) branch divergence @  PC=0x400 (_2.ptx:126) @%p6 bra $Lt_0_12546;
GPGPU-Sim PTX:    immediate post dominator      @  PC=0x460 (_2.ptx:142) bar.sync 0;
GPGPU-Sim PTX:  6 (potential) branch divergence @  PC=0x418 (_2.ptx:129) @%p7 bra $Lt_0_12546;
GPGPU-Sim PTX:    immediate post dominator      @  PC=0x460 (_2.ptx:142) bar.sync 0;
GPGPU-Sim PTX:  7 (potential) branch divergence @  PC=0x440 (_2.ptx:134) @%p8 bra $Lt_0_12546;
GPGPU-Sim PTX:    immediate post dominator      @  PC=0x460 (_2.ptx:142) bar.sync 0;
GPGPU-Sim PTX:  8 (potential) branch divergence @  PC=0x468 (_2.ptx:143) @!%p2 bra $Lt_0_9986;
GPGPU-Sim PTX:    immediate post dominator      @  PC=0x4b0 (_2.ptx:156) bar.sync 0;
GPGPU-Sim PTX:  9 (potential) branch divergence @  PC=0x4c8 (_2.ptx:160) @%p9 bra $Lt_0_8706;
GPGPU-Sim PTX:    immediate post dominator      @  PC=0x4d0 (_2.ptx:161) bra.uni $Lt_0_8194;
GPGPU-Sim PTX: 10 (potential) branch divergence @  PC=0x4d0 (_2.ptx:161) bra.uni $Lt_0_8194;
GPGPU-Sim PTX:    immediate post dominator      @  PC=0x528 (_2.ptx:174) ld.global.u64 %rd43, [%rd15+0];
GPGPU-Sim PTX: 11 (potential) branch divergence @  PC=0x560 (_2.ptx:181) @%p10 bra $Lt_0_10754;
GPGPU-Sim PTX:    immediate post dominator      @  PC=0x588 (_2.ptx:189) bar.sync 0;
GPGPU-Sim PTX: 12 (potential) branch divergence @  PC=0x5c8 (_2.ptx:197) @%p11 bra $Lt_0_11266;
GPGPU-Sim PTX:    immediate post dominator      @  PC=0x618 (_2.ptx:210) exit;
GPGPU-Sim PTX: ... end of reconvergence points for findRangeK
GPGPU-Sim PTX: ... done pre-decoding instructions for 'findRangeK'.
GPGPU-Sim PTX: finished parsing EMBEDDED .ptx file _2.ptx
Adding _cuobjdump_2.ptx with cubin handle 2
GPGPU-Sim PTX: extracting embedded .ptx to temporary file "_ptx_PYGWYU"
Running: cat _ptx_PYGWYU | sed 's/.version 1.5/.version 1.4/' | sed 's/, texmode_independent//' | sed 's/\(\.extern \.const\[1\] .b8 \w\+\)\[\]/\1\[1\]/' | sed 's/const\[.\]/const\[0\]/g' > _ptx2_ththkq
GPGPU-Sim PTX: generating ptxinfo using "$CUDA_INSTALL_PATH/bin/ptxas --gpu-name=sm_20 -v _ptx2_ththkq --output-file  /dev/null 2> _ptx_PYGWYUinfo"
GPGPU-Sim PTX: Kernel 'findRangeK' : regs=23, lmem=0, smem=0, cmem=120
GPGPU-Sim PTX: removing ptxinfo using "rm -f _ptx_PYGWYU _ptx2_ththkq _ptx_PYGWYUinfo"
GPGPU-Sim PTX: loading globals with explicit initializers... 
GPGPU-Sim PTX: finished loading globals (0 bytes total).
GPGPU-Sim PTX: loading constants with explicit initializers...  done.
GPGPU-Sim PTX: __cudaRegisterFatBinary, fat_cubin_handle = 3, filename=./util/cuda/cuda.cu
Selecting device 0
Input File: ../../data/b+tree/mil.txt 
Command File: ../../data/b+tree/command.txt 
Command Buffer: 
j 6000 3000
k 10000


Getting input from file ../../data/b+tree/mil.txt...
Transforming data to a GPU suitable structure...
Tree transformation took 0.766897
Waiting for command
> 
******command: j count=6000, rSize=6000 
knodes_elem=3953, knodes_unit_mem=4084, knodes_mem=16144052
GPGPU-Sim: synchronize waiting for inactive GPU simulation
GPGPU-Sim API: Stream Manager State
GPGPU-Sim: detected inactive GPU simulation thread
# of blocks = 6000, # of threads/block = 508 (ensure that device can handle)

GPGPU-Sim PTX: cudaLaunch for 0x0x406530 (mode=performance simulation) on stream 0
GPGPU-Sim PTX: pushing kernel 'findRangeK' to stream 0, gridDim= (6000,1,1) blockDim = (508,1,1) 
kernel 'findRangeK' transfer to GPU hardware scheduler
GPGPU-Sim uArch: Shader 1 bind to kernel 1 'findRangeK'
GPGPU-Sim uArch: CTA/core = 2, limited by: regs
GPGPU-Sim uArch: core:  1, cta: 0 initialized @(1,0)
GPGPU-Sim uArch: Shader 2 bind to kernel 1 'findRangeK'
GPGPU-Sim uArch: core:  2, cta: 0 initialized @(1,0)
GPGPU-Sim uArch: Shader 3 bind to kernel 1 'findRangeK'
GPGPU-Sim uArch: core:  3, cta: 0 initialized @(1,0)
GPGPU-Sim uArch: Shader 4 bind to kernel 1 'findRangeK'
GPGPU-Sim uArch: core:  4, cta: 0 initialized @(1,0)
GPGPU-Sim uArch: Shader 5 bind to kernel 1 'findRangeK'
GPGPU-Sim uArch: core:  5, cta: 0 initialized @(1,0)
GPGPU-Sim uArch: Shader 6 bind to kernel 1 'findRangeK'
GPGPU-Sim uArch: core:  6, cta: 0 initialized @(1,0)
GPGPU-Sim uArch: Shader 7 bind to kernel 1 'findRangeK'
GPGPU-Sim uArch: core:  7, cta: 0 initialized @(1,0)
GPGPU-Sim uArch: Shader 8 bind to kernel 1 'findRangeK'
GPGPU-Sim uArch: core:  8, cta: 0 initialized @(1,0)
GPGPU-Sim uArch: Shader 9 bind to kernel 1 'findRangeK'
GPGPU-Sim uArch: core:  9, cta: 0 initialized @(1,0)
GPGPU-Sim uArch: Shader 10 bind to kernel 1 'findRangeK'
GPGPU-Sim uArch: core: 10, cta: 0 initialized @(1,0)
GPGPU-Sim uArch: Shader 11 bind to kernel 1 'findRangeK'
GPGPU-Sim uArch: core: 11, cta: 0 initialized @(1,0)
GPGPU-Sim uArch: Shader 12 bind to kernel 1 'findRangeK'
GPGPU-Sim uArch: core: 12, cta: 0 initialized @(1,0)
GPGPU-Sim uArch: Shader 13 bind to kernel 1 'findRangeK'
GPGPU-Sim uArch: core: 13, cta: 0 initialized @(1,0)
GPGPU-Sim uArch: Shader 14 bind to kernel 1 'findRangeK'
GPGPU-Sim uArch: core: 14, cta: 0 initialized @(1,0)
GPGPU-Sim uArch: Shader 0 bind to kernel 1 'findRangeK'
GPGPU-Sim uArch: core:  0, cta: 0 initialized @(1,0)
GPGPU-Sim uArch: core:  1, cta: 1 initialized @(2,0)
GPGPU-Sim uArch: core:  2, cta: 1 initialized @(2,0)
GPGPU-Sim uArch: core:  3, cta: 1 initialized @(2,0)
GPGPU-Sim uArch: core:  4, cta: 1 initialized @(2,0)
GPGPU-Sim uArch: core:  5, cta: 1 initialized @(2,0)
GPGPU-Sim uArch: core:  6, cta: 1 initialized @(2,0)
GPGPU-Sim uArch: core:  7, cta: 1 initialized @(2,0)
GPGPU-Sim uArch: core:  8, cta: 1 initialized @(2,0)
GPGPU-Sim uArch: core:  9, cta: 1 initialized @(2,0)
GPGPU-Sim uArch: core: 10, cta: 1 initialized @(2,0)
GPGPU-Sim uArch: core: 11, cta: 1 initialized @(2,0)
GPGPU-Sim uArch: core: 12, cta: 1 initialized @(2,0)
GPGPU-Sim uArch: core: 13, cta: 1 initialized @(2,0)
GPGPU-Sim uArch: core: 14, cta: 1 initialized @(2,0)
GPGPU-Sim uArch: core:  0, cta: 1 initialized @(2,0)
GPGPU-Sim uArch: cycles simulated: 500  inst.: 0 (ipc= 0.0) sim_rate=0 (inst/sec) elapsed = 0:0:00:25 / Thu Aug 14 11:03:25 2014
GPGPU-Sim PTX: 100000 instructions simulated : ctaid=(19,0,0) tid=(91,0,0)
GPGPU-Sim PTX: 200000 instructions simulated : ctaid=(8,0,0) tid=(7,0,0)
GPGPU-Sim uArch: cycles simulated: 1000  inst.: 255476 (ipc=255.5) sim_rate=9124 (inst/sec) elapsed = 0:0:00:28 / Thu Aug 14 11:03:28 2014
GPGPU-Sim PTX: 300000 instructions simulated : ctaid=(8,0,0) tid=(411,0,0)
GPGPU-Sim uArch: cycles simulated: 1500  inst.: 337880 (ipc=225.3) sim_rate=11262 (inst/sec) elapsed = 0:0:00:30 / Thu Aug 14 11:03:30 2014
GPGPU-Sim PTX: 400000 instructions simulated : ctaid=(22,0,0) tid=(63,0,0)
GPGPU-Sim uArch: cycles simulated: 2000  inst.: 426874 (ipc=213.4) sim_rate=13339 (inst/sec) elapsed = 0:0:00:32 / Thu Aug 14 11:03:32 2014
GPGPU-Sim PTX: 500000 instructions simulated : ctaid=(29,0,0) tid=(352,0,0)
GPGPU-Sim uArch: cycles simulated: 2500  inst.: 529708 (ipc=211.9) sim_rate=15579 (inst/sec) elapsed = 0:0:00:34 / Thu Aug 14 11:03:34 2014
GPGPU-Sim PTX: 600000 instructions simulated : ctaid=(6,0,0) tid=(59,0,0)
GPGPU-Sim uArch: cycles simulated: 3000  inst.: 611006 (ipc=203.7) sim_rate=17457 (inst/sec) elapsed = 0:0:00:35 / Thu Aug 14 11:03:35 2014
GPGPU-Sim PTX: 700000 instructions simulated : ctaid=(26,0,0) tid=(265,0,0)
GPGPU-Sim uArch: cycles simulated: 3500  inst.: 686318 (ipc=196.1) sim_rate=18549 (inst/sec) elapsed = 0:0:00:37 / Thu Aug 14 11:03:37 2014
GPGPU-Sim uArch: cycles simulated: 4000  inst.: 760414 (ipc=190.1) sim_rate=19497 (inst/sec) elapsed = 0:0:00:39 / Thu Aug 14 11:03:39 2014
GPGPU-Sim PTX: 800000 instructions simulated : ctaid=(22,0,0) tid=(263,0,0)
GPGPU-Sim uArch: cycles simulated: 4500  inst.: 854936 (ipc=190.0) sim_rate=20852 (inst/sec) elapsed = 0:0:00:41 / Thu Aug 14 11:03:41 2014
GPGPU-Sim PTX: 900000 instructions simulated : ctaid=(1,0,0) tid=(285,0,0)
GPGPU-Sim uArch: cycles simulated: 5000  inst.: 965418 (ipc=193.1) sim_rate=22451 (inst/sec) elapsed = 0:0:00:43 / Thu Aug 14 11:03:43 2014
GPGPU-Sim PTX: 1000000 instructions simulated : ctaid=(11,0,0) tid=(429,0,0)
GPGPU-Sim uArch: cycles simulated: 5500  inst.: 1018789 (ipc=185.2) sim_rate=23154 (inst/sec) elapsed = 0:0:00:44 / Thu Aug 14 11:03:44 2014
GPGPU-Sim PTX: 1100000 instructions simulated : ctaid=(29,0,0) tid=(319,0,0)
GPGPU-Sim uArch: cycles simulated: 6000  inst.: 1104679 (ipc=184.1) sim_rate=24014 (inst/sec) elapsed = 0:0:00:46 / Thu Aug 14 11:03:46 2014
GPGPU-Sim PTX: 1200000 instructions simulated : ctaid=(11,0,0) tid=(26,0,0)
GPGPU-Sim uArch: cycles simulated: 6500  inst.: 1157200 (ipc=178.0) sim_rate=24108 (inst/sec) elapsed = 0:0:00:48 / Thu Aug 14 11:03:48 2014
GPGPU-Sim uArch: cycles simulated: 7000  inst.: 1233865 (ipc=176.3) sim_rate=24677 (inst/sec) elapsed = 0:0:00:50 / Thu Aug 14 11:03:50 2014
GPGPU-Sim PTX: 1300000 instructions simulated : ctaid=(0,0,0) tid=(44,0,0)
GPGPU-Sim uArch: cycles simulated: 7500  inst.: 1283694 (ipc=171.2) sim_rate=24686 (inst/sec) elapsed = 0:0:00:52 / Thu Aug 14 11:03:52 2014
GPGPU-Sim uArch: Shader 1 finished CTA #0 (7541,0), 1 CTAs running
GPGPU-Sim uArch: core:  1, cta: 0 initialized @(7542,0)
GPGPU-Sim uArch: Shader 6 finished CTA #0 (7568,0), 1 CTAs running
GPGPU-Sim uArch: core:  6, cta: 0 initialized @(7569,0)
GPGPU-Sim uArch: Shader 8 finished CTA #0 (7592,0), 1 CTAs running
GPGPU-Sim uArch: core:  8, cta: 0 initialized @(7593,0)
GPGPU-Sim uArch: Shader 8 finished CTA #1 (7617,0), 1 CTAs running
GPGPU-Sim uArch: core:  8, cta: 1 initialized @(7618,0)
GPGPU-Sim uArch: Shader 0 finished CTA #0 (7651,0), 1 CTAs running
GPGPU-Sim uArch: core:  0, cta: 0 initialized @(7652,0)
GPGPU-Sim uArch: Shader 12 finished CTA #0 (7658,0), 1 CTAs running
GPGPU-Sim uArch: core: 12, cta: 0 initialized @(7659,0)
GPGPU-Sim uArch: Shader 10 finished CTA #0 (7670,0), 1 CTAs running
GPGPU-Sim uArch: core: 10, cta: 0 initialized @(7671,0)
GPGPU-Sim uArch: Shader 3 finished CTA #0 (7681,0), 1 CTAs running
GPGPU-Sim uArch: core:  3, cta: 0 initialized @(7682,0)
GPGPU-Sim uArch: Shader 9 finished CTA #1 (7684,0), 1 CTAs running
GPGPU-Sim uArch: core:  9, cta: 1 initialized @(7685,0)
GPGPU-Sim uArch: Shader 7 finished CTA #0 (7693,0), 1 CTAs running
GPGPU-Sim uArch: core:  7, cta: 0 initialized @(7694,0)
GPGPU-Sim uArch: Shader 4 finished CTA #1 (7709,0), 1 CTAs running
GPGPU-Sim uArch: core:  4, cta: 1 initialized @(7710,0)
GPGPU-Sim uArch: Shader 12 finished CTA #1 (7715,0), 1 CTAs running
GPGPU-Sim uArch: core: 12, cta: 1 initialized @(7716,0)
GPGPU-Sim uArch: Shader 2 finished CTA #1 (7723,0), 1 CTAs running
GPGPU-Sim uArch: core:  2, cta: 1 initialized @(7724,0)
GPGPU-Sim uArch: Shader 10 finished CTA #1 (7753,0), 1 CTAs running
GPGPU-Sim uArch: core: 10, cta: 1 initialized @(7754,0)
GPGPU-Sim uArch: Shader 0 finished CTA #1 (7759,0), 1 CTAs running
GPGPU-Sim uArch: core:  0, cta: 1 initialized @(7760,0)
GPGPU-Sim uArch: Shader 9 finished CTA #0 (7760,0), 1 CTAs running
GPGPU-Sim uArch: core:  9, cta: 0 initialized @(7761,0)
GPGPU-Sim uArch: Shader 3 finished CTA #1 (7762,0), 1 CTAs running
GPGPU-Sim uArch: core:  3, cta: 1 initialized @(7763,0)
GPGPU-Sim uArch: Shader 4 finished CTA #0 (7768,0), 1 CTAs running
GPGPU-Sim uArch: core:  4, cta: 0 initialized @(7769,0)
GPGPU-Sim PTX: 1400000 instructions simulated : ctaid=(46,0,0) tid=(265,0,0)
GPGPU-Sim uArch: Shader 2 finished CTA #0 (7796,0), 1 CTAs running
GPGPU-Sim uArch: core:  2, cta: 0 initialized @(7797,0)
GPGPU-Sim uArch: Shader 14 finished CTA #0 (7797,0), 1 CTAs running
GPGPU-Sim uArch: core: 14, cta: 0 initialized @(7798,0)
GPGPU-Sim uArch: Shader 1 finished CTA #1 (7803,0), 1 CTAs running
GPGPU-Sim uArch: core:  1, cta: 1 initialized @(7804,0)
GPGPU-Sim uArch: Shader 6 finished CTA #1 (7836,0), 1 CTAs running
GPGPU-Sim uArch: core:  6, cta: 1 initialized @(7837,0)
GPGPU-Sim uArch: Shader 5 finished CTA #1 (7878,0), 1 CTAs running
GPGPU-Sim uArch: core:  5, cta: 1 initialized @(7879,0)
GPGPU-Sim uArch: Shader 7 finished CTA #1 (7901,0), 1 CTAs running
GPGPU-Sim uArch: core:  7, cta: 1 initialized @(7902,0)
GPGPU-Sim uArch: Shader 11 finished CTA #1 (7905,0), 1 CTAs running
GPGPU-Sim uArch: core: 11, cta: 1 initialized @(7906,0)
GPGPU-Sim uArch: Shader 14 finished CTA #1 (7912,0), 1 CTAs running
GPGPU-Sim uArch: core: 14, cta: 1 initialized @(7913,0)
GPGPU-Sim uArch: Shader 5 finished CTA #0 (7920,0), 1 CTAs running
GPGPU-Sim uArch: core:  5, cta: 0 initialized @(7921,0)
GPGPU-Sim PTX: 1500000 instructions simulated : ctaid=(31,0,0) tid=(358,0,0)
GPGPU-Sim uArch: Shader 13 finished CTA #1 (7982,0), 1 CTAs running
GPGPU-Sim uArch: core: 13, cta: 1 initialized @(7983,0)
GPGPU-Sim uArch: Shader 13 finished CTA #0 (7999,0), 1 CTAs running
GPGPU-Sim uArch: core: 13, cta: 0 initialized @(8000,0)
GPGPU-Sim uArch: cycles simulated: 8000  inst.: 1497958 (ipc=187.2) sim_rate=26749 (inst/sec) elapsed = 0:0:00:56 / Thu Aug 14 11:03:56 2014
GPGPU-Sim PTX: 1600000 instructions simulated : ctaid=(43,0,0) tid=(397,0,0)
GPGPU-Sim uArch: Shader 11 finished CTA #0 (8097,0), 1 CTAs running
GPGPU-Sim uArch: core: 11, cta: 0 initialized @(8098,0)
GPGPU-Sim PTX: 1700000 instructions simulated : ctaid=(51,0,0) tid=(390,0,0)
GPGPU-Sim uArch: cycles simulated: 8500  inst.: 1734970 (ipc=204.1) sim_rate=28916 (inst/sec) elapsed = 0:0:01:00 / Thu Aug 14 11:04:00 2014
GPGPU-Sim PTX: 1800000 instructions simulated : ctaid=(59,0,0) tid=(306,0,0)
GPGPU-Sim PTX: 1900000 instructions simulated : ctaid=(45,0,0) tid=(318,0,0)
GPGPU-Sim uArch: cycles simulated: 9000  inst.: 1919249 (ipc=213.2) sim_rate=30955 (inst/sec) elapsed = 0:0:01:02 / Thu Aug 14 11:04:02 2014
GPGPU-Sim PTX: 2000000 instructions simulated : ctaid=(38,0,0) tid=(117,0,0)
GPGPU-Sim uArch: cycles simulated: 9500  inst.: 1996616 (ipc=210.2) sim_rate=31197 (inst/sec) elapsed = 0:0:01:04 / Thu Aug 14 11:04:04 2014
GPGPU-Sim PTX: 2100000 instructions simulated : ctaid=(39,0,0) tid=(30,0,0)
GPGPU-Sim uArch: cycles simulated: 10000  inst.: 2096288 (ipc=209.6) sim_rate=31287 (inst/sec) elapsed = 0:0:01:07 / Thu Aug 14 11:04:07 2014
GPGPU-Sim PTX: 2200000 instructions simulated : ctaid=(44,0,0) tid=(36,0,0)
GPGPU-Sim PTX: 2300000 instructions simulated : ctaid=(52,0,0) tid=(479,0,0)
GPGPU-Sim uArch: cycles simulated: 10500  inst.: 2238927 (ipc=213.2) sim_rate=32448 (inst/sec) elapsed = 0:0:01:09 / Thu Aug 14 11:04:09 2014
GPGPU-Sim uArch: cycles simulated: 11000  inst.: 2302769 (ipc=209.3) sim_rate=32896 (inst/sec) elapsed = 0:0:01:10 / Thu Aug 14 11:04:10 2014
GPGPU-Sim PTX: 2400000 instructions simulated : ctaid=(38,0,0) tid=(479,0,0)
GPGPU-Sim uArch: cycles simulated: 11500  inst.: 2394605 (ipc=208.2) sim_rate=33258 (inst/sec) elapsed = 0:0:01:12 / Thu Aug 14 11:04:12 2014
GPGPU-Sim PTX: 2500000 instructions simulated : ctaid=(41,0,0) tid=(146,0,0)
GPGPU-Sim uArch: cycles simulated: 12000  inst.: 2448901 (ipc=204.1) sim_rate=33093 (inst/sec) elapsed = 0:0:01:14 / Thu Aug 14 11:04:14 2014
GPGPU-Sim PTX: 2600000 instructions simulated : ctaid=(40,0,0) tid=(8,0,0)
GPGPU-Sim uArch: cycles simulated: 12500  inst.: 2526347 (ipc=202.1) sim_rate=32809 (inst/sec) elapsed = 0:0:01:17 / Thu Aug 14 11:04:17 2014
GPGPU-Sim uArch: cycles simulated: 13000  inst.: 2583299 (ipc=198.7) sim_rate=33119 (inst/sec) elapsed = 0:0:01:18 / Thu Aug 14 11:04:18 2014
GPGPU-Sim uArch: Shader 1 finished CTA #0 (13001,0), 1 CTAs running
GPGPU-Sim uArch: core:  1, cta: 0 initialized @(13002,0)
GPGPU-Sim uArch: Shader 10 finished CTA #1 (13114,0), 1 CTAs running
GPGPU-Sim uArch: core: 10, cta: 1 initialized @(13115,0)
GPGPU-Sim uArch: Shader 9 finished CTA #1 (13148,0), 1 CTAs running
GPGPU-Sim uArch: core:  9, cta: 1 initialized @(13149,0)
GPGPU-Sim uArch: Shader 8 finished CTA #1 (13167,0), 1 CTAs running
GPGPU-Sim uArch: core:  8, cta: 1 initialized @(13168,0)
GPGPU-Sim uArch: Shader 0 finished CTA #0 (13191,0), 1 CTAs running
GPGPU-Sim uArch: core:  0, cta: 0 initialized @(13192,0)
GPGPU-Sim uArch: Shader 8 finished CTA #0 (13192,0), 1 CTAs running
GPGPU-Sim uArch: core:  8, cta: 0 initialized @(13193,0)
GPGPU-Sim uArch: Shader 10 finished CTA #0 (13197,0), 1 CTAs running
GPGPU-Sim uArch: Shader 14 finished CTA #0 (13197,0), 1 CTAs running
GPGPU-Sim uArch: core: 10, cta: 0 initialized @(13198,0)
GPGPU-Sim uArch: core: 14, cta: 0 initialized @(13198,0)
GPGPU-Sim uArch: Shader 6 finished CTA #0 (13208,0), 1 CTAs running
GPGPU-Sim uArch: core:  6, cta: 0 initialized @(13209,0)
GPGPU-Sim uArch: Shader 3 finished CTA #0 (13215,0), 1 CTAs running
GPGPU-Sim uArch: core:  3, cta: 0 initialized @(13216,0)
GPGPU-Sim PTX: 2700000 instructions simulated : ctaid=(61,0,0) tid=(220,0,0)
GPGPU-Sim uArch: Shader 0 finished CTA #1 (13272,0), 1 CTAs running
GPGPU-Sim uArch: core:  0, cta: 1 initialized @(13273,0)
GPGPU-Sim uArch: Shader 7 finished CTA #0 (13273,0), 1 CTAs running
GPGPU-Sim uArch: core:  7, cta: 0 initialized @(13274,0)
GPGPU-Sim uArch: Shader 11 finished CTA #0 (13275,0), 1 CTAs running
GPGPU-Sim uArch: core: 11, cta: 0 initialized @(13276,0)
GPGPU-Sim uArch: Shader 13 finished CTA #0 (13278,0), 1 CTAs running
GPGPU-Sim uArch: core: 13, cta: 0 initialized @(13279,0)
GPGPU-Sim uArch: Shader 9 finished CTA #0 (13279,0), 1 CTAs running
GPGPU-Sim uArch: core:  9, cta: 0 initialized @(13280,0)
GPGPU-Sim uArch: Shader 14 finished CTA #1 (13280,0), 1 CTAs running
GPGPU-Sim uArch: core: 14, cta: 1 initialized @(13281,0)
GPGPU-Sim uArch: Shader 4 finished CTA #1 (13285,0), 1 CTAs running
GPGPU-Sim uArch: core:  4, cta: 1 initialized @(13286,0)
GPGPU-Sim uArch: Shader 11 finished CTA #1 (13302,0), 1 CTAs running
GPGPU-Sim uArch: core: 11, cta: 1 initialized @(13303,0)
GPGPU-Sim uArch: Shader 6 finished CTA #1 (13316,0), 1 CTAs running
GPGPU-Sim uArch: core:  6, cta: 1 initialized @(13317,0)
GPGPU-Sim uArch: Shader 5 finished CTA #0 (13331,0), 1 CTAs running
GPGPU-Sim uArch: core:  5, cta: 0 initialized @(13332,0)
GPGPU-Sim uArch: Shader 7 finished CTA #1 (13349,0), 1 CTAs running
GPGPU-Sim uArch: core:  7, cta: 1 initialized @(13350,0)
GPGPU-Sim uArch: Shader 2 finished CTA #1 (13356,0), 1 CTAs running
GPGPU-Sim uArch: core:  2, cta: 1 initialized @(13357,0)
GPGPU-Sim uArch: Shader 5 finished CTA #1 (13366,0), 1 CTAs running
GPGPU-Sim uArch: core:  5, cta: 1 initialized @(13367,0)
GPGPU-Sim uArch: Shader 12 finished CTA #0 (13380,0), 1 CTAs running
GPGPU-Sim uArch: core: 12, cta: 0 initialized @(13381,0)
GPGPU-Sim uArch: Shader 12 finished CTA #1 (13397,0), 1 CTAs running
GPGPU-Sim uArch: core: 12, cta: 1 initialized @(13398,0)
GPGPU-Sim uArch: Shader 4 finished CTA #0 (13400,0), 1 CTAs running
GPGPU-Sim uArch: core:  4, cta: 0 initialized @(13401,0)
GPGPU-Sim PTX: 2800000 instructions simulated : ctaid=(76,0,0) tid=(161,0,0)
GPGPU-Sim uArch: Shader 3 finished CTA #1 (13430,0), 1 CTAs running
GPGPU-Sim uArch: core:  3, cta: 1 initialized @(13431,0)
GPGPU-Sim uArch: Shader 13 finished CTA #1 (13493,0), 1 CTAs running
GPGPU-Sim uArch: core: 13, cta: 1 initialized @(13494,0)
GPGPU-Sim uArch: cycles simulated: 13500  inst.: 2786416 (ipc=206.4) sim_rate=33571 (inst/sec) elapsed = 0:0:01:23 / Thu Aug 14 11:04:23 2014
GPGPU-Sim PTX: 2900000 instructions simulated : ctaid=(65,0,0) tid=(173,0,0)
GPGPU-Sim uArch: Shader 1 finished CTA #1 (13534,0), 1 CTAs running
GPGPU-Sim uArch: core:  1, cta: 1 initialized @(13535,0)
GPGPU-Sim PTX: 3000000 instructions simulated : ctaid=(79,0,0) tid=(374,0,0)
GPGPU-Sim PTX: 3100000 instructions simulated : ctaid=(83,0,0) tid=(274,0,0)
GPGPU-Sim uArch: Shader 2 finished CTA #0 (13977,0), 1 CTAs running
GPGPU-Sim uArch: core:  2, cta: 0 initialized @(13978,0)
GPGPU-Sim uArch: cycles simulated: 14000  inst.: 3004972 (ipc=214.6) sim_rate=34941 (inst/sec) elapsed = 0:0:01:26 / Thu Aug 14 11:04:26 2014
GPGPU-Sim PTX: 3200000 instructions simulated : ctaid=(89,0,0) tid=(126,0,0)
GPGPU-Sim uArch: cycles simulated: 14500  inst.: 3195557 (ipc=220.4) sim_rate=35905 (inst/sec) elapsed = 0:0:01:29 / Thu Aug 14 11:04:29 2014
GPGPU-Sim PTX: 3300000 instructions simulated : ctaid=(70,0,0) tid=(335,0,0)
GPGPU-Sim uArch: cycles simulated: 15000  inst.: 3271661 (ipc=218.1) sim_rate=35952 (inst/sec) elapsed = 0:0:01:31 / Thu Aug 14 11:04:31 2014
GPGPU-Sim PTX: 3400000 instructions simulated : ctaid=(80,0,0) tid=(52,0,0)
GPGPU-Sim uArch: cycles simulated: 15500  inst.: 3371571 (ipc=217.5) sim_rate=36253 (inst/sec) elapsed = 0:0:01:33 / Thu Aug 14 11:04:33 2014
GPGPU-Sim PTX: 3500000 instructions simulated : ctaid=(73,0,0) tid=(75,0,0)
GPGPU-Sim PTX: 3600000 instructions simulated : ctaid=(71,0,0) tid=(113,0,0)
GPGPU-Sim uArch: cycles simulated: 16000  inst.: 3506528 (ipc=219.2) sim_rate=36526 (inst/sec) elapsed = 0:0:01:36 / Thu Aug 14 11:04:36 2014
GPGPU-Sim PTX: 3700000 instructions simulated : ctaid=(74,0,0) tid=(452,0,0)
GPGPU-Sim uArch: cycles simulated: 16500  inst.: 3590855 (ipc=217.6) sim_rate=37019 (inst/sec) elapsed = 0:0:01:37 / Thu Aug 14 11:04:37 2014
GPGPU-Sim PTX: 3800000 instructions simulated : ctaid=(79,0,0) tid=(447,0,0)
GPGPU-Sim uArch: cycles simulated: 17000  inst.: 3686473 (ipc=216.9) sim_rate=37237 (inst/sec) elapsed = 0:0:01:39 / Thu Aug 14 11:04:39 2014
GPGPU-Sim uArch: cycles simulated: 17500  inst.: 3744732 (ipc=214.0) sim_rate=37447 (inst/sec) elapsed = 0:0:01:40 / Thu Aug 14 11:04:40 2014
GPGPU-Sim PTX: 3900000 instructions simulated : ctaid=(77,0,0) tid=(435,0,0)
GPGPU-Sim uArch: cycles simulated: 18000  inst.: 3814807 (ipc=211.9) sim_rate=37400 (inst/sec) elapsed = 0:0:01:42 / Thu Aug 14 11:04:42 2014
GPGPU-Sim uArch: cycles simulated: 18500  inst.: 3867385 (ipc=209.0) sim_rate=37186 (inst/sec) elapsed = 0:0:01:44 / Thu Aug 14 11:04:44 2014
GPGPU-Sim uArch: Shader 8 finished CTA #1 (18558,0), 1 CTAs running
GPGPU-Sim uArch: core:  8, cta: 1 initialized @(18559,0)
GPGPU-Sim PTX: 4000000 instructions simulated : ctaid=(90,0,0) tid=(476,0,0)
GPGPU-Sim uArch: Shader 9 finished CTA #1 (18765,0), 1 CTAs running
GPGPU-Sim uArch: core:  9, cta: 1 initialized @(18766,0)
GPGPU-Sim uArch: Shader 1 finished CTA #0 (18831,0), 1 CTAs running
GPGPU-Sim uArch: core:  1, cta: 0 initialized @(18832,0)
GPGPU-Sim uArch: Shader 10 finished CTA #1 (18952,0), 1 CTAs running
GPGPU-Sim uArch: core: 10, cta: 1 initialized @(18953,0)
GPGPU-Sim uArch: Shader 7 finished CTA #1 (18970,0), 1 CTAs running
GPGPU-Sim uArch: core:  7, cta: 1 initialized @(18971,0)
GPGPU-Sim uArch: Shader 2 finished CTA #0 (18972,0), 1 CTAs running
GPGPU-Sim uArch: core:  2, cta: 0 initialized @(18973,0)
GPGPU-Sim uArch: Shader 8 finished CTA #0 (18976,0), 1 CTAs running
GPGPU-Sim uArch: core:  8, cta: 0 initialized @(18977,0)
GPGPU-Sim uArch: Shader 11 finished CTA #0 (18978,0), 1 CTAs running
GPGPU-Sim uArch: core: 11, cta: 0 initialized @(18979,0)
GPGPU-Sim uArch: Shader 6 finished CTA #1 (18980,0), 1 CTAs running
GPGPU-Sim uArch: core:  6, cta: 1 initialized @(18981,0)
GPGPU-Sim uArch: Shader 13 finished CTA #0 (18988,0), 1 CTAs running
GPGPU-Sim uArch: core: 13, cta: 0 initialized @(18989,0)
GPGPU-Sim uArch: Shader 2 finished CTA #1 (18989,0), 1 CTAs running
GPGPU-Sim uArch: core:  2, cta: 1 initialized @(18990,0)
GPGPU-Sim uArch: Shader 14 finished CTA #1 (18990,0), 1 CTAs running
GPGPU-Sim uArch: core: 14, cta: 1 initialized @(18991,0)
GPGPU-Sim uArch: Shader 1 finished CTA #1 (18994,0), 1 CTAs running
GPGPU-Sim uArch: Shader 9 finished CTA #0 (18994,0), 1 CTAs running
GPGPU-Sim uArch: core:  1, cta: 1 initialized @(18995,0)
GPGPU-Sim uArch: core:  9, cta: 0 initialized @(18995,0)
GPGPU-Sim uArch: Shader 11 finished CTA #1 (18995,0), 1 CTAs running
GPGPU-Sim uArch: core: 11, cta: 1 initialized @(18996,0)
GPGPU-Sim uArch: Shader 3 finished CTA #0 (18996,0), 1 CTAs running
GPGPU-Sim uArch: core:  3, cta: 0 initialized @(18997,0)
GPGPU-Sim uArch: Shader 6 finished CTA #0 (18997,0), 1 CTAs running
GPGPU-Sim uArch: core:  6, cta: 0 initialized @(18998,0)
GPGPU-Sim uArch: cycles simulated: 19000  inst.: 3929365 (ipc=206.8) sim_rate=37422 (inst/sec) elapsed = 0:0:01:45 / Thu Aug 14 11:04:45 2014
GPGPU-Sim uArch: Shader 10 finished CTA #0 (19011,0), 1 CTAs running
GPGPU-Sim uArch: core: 10, cta: 0 initialized @(19012,0)
GPGPU-Sim uArch: Shader 3 finished CTA #1 (19013,0), 1 CTAs running
GPGPU-Sim uArch: core:  3, cta: 1 initialized @(19014,0)
GPGPU-Sim uArch: Shader 14 finished CTA #0 (19049,0), 1 CTAs running
GPGPU-Sim uArch: core: 14, cta: 0 initialized @(19050,0)
GPGPU-Sim PTX: 4100000 instructions simulated : ctaid=(99,0,0) tid=(443,0,0)
GPGPU-Sim uArch: Shader 12 finished CTA #0 (19137,0), 1 CTAs running
GPGPU-Sim uArch: core: 12, cta: 0 initialized @(19138,0)
GPGPU-Sim uArch: Shader 0 finished CTA #1 (19141,0), 1 CTAs running
GPGPU-Sim uArch: core:  0, cta: 1 initialized @(19142,0)
GPGPU-Sim uArch: Shader 0 finished CTA #0 (19168,0), 1 CTAs running
GPGPU-Sim uArch: core:  0, cta: 0 initialized @(19169,0)
GPGPU-Sim uArch: Shader 12 finished CTA #1 (19172,0), 1 CTAs running
GPGPU-Sim uArch: Shader 13 finished CTA #1 (19172,0), 1 CTAs running
GPGPU-Sim uArch: core: 12, cta: 1 initialized @(19173,0)
GPGPU-Sim uArch: core: 13, cta: 1 initialized @(19173,0)
GPGPU-Sim uArch: Shader 4 finished CTA #1 (19177,0), 1 CTAs running
GPGPU-Sim uArch: core:  4, cta: 1 initialized @(19178,0)
GPGPU-Sim uArch: Shader 7 finished CTA #0 (19183,0), 1 CTAs running
GPGPU-Sim uArch: core:  7, cta: 0 initialized @(19184,0)
GPGPU-Sim uArch: Shader 4 finished CTA #0 (19202,0), 1 CTAs running
GPGPU-Sim uArch: core:  4, cta: 0 initialized @(19203,0)
GPGPU-Sim PTX: 4200000 instructions simulated : ctaid=(93,0,0) tid=(286,0,0)
GPGPU-Sim uArch: Shader 5 finished CTA #0 (19319,0), 1 CTAs running
GPGPU-Sim uArch: core:  5, cta: 0 initialized @(19320,0)
GPGPU-Sim PTX: 4300000 instructions simulated : ctaid=(109,0,0) tid=(171,0,0)
GPGPU-Sim uArch: Shader 5 finished CTA #1 (19427,0), 1 CTAs running
GPGPU-Sim uArch: core:  5, cta: 1 initialized @(19428,0)
GPGPU-Sim uArch: cycles simulated: 19500  inst.: 4208537 (ipc=215.8) sim_rate=38259 (inst/sec) elapsed = 0:0:01:50 / Thu Aug 14 11:04:50 2014
GPGPU-Sim PTX: 4400000 instructions simulated : ctaid=(119,0,0) tid=(393,0,0)
GPGPU-Sim PTX: 4500000 instructions simulated : ctaid=(107,0,0) tid=(429,0,0)
GPGPU-Sim uArch: cycles simulated: 20000  inst.: 4372930 (ipc=218.6) sim_rate=38698 (inst/sec) elapsed = 0:0:01:53 / Thu Aug 14 11:04:53 2014
GPGPU-Sim PTX: 4600000 instructions simulated : ctaid=(113,0,0) tid=(26,0,0)
GPGPU-Sim uArch: cycles simulated: 20500  inst.: 4521163 (ipc=220.5) sim_rate=39314 (inst/sec) elapsed = 0:0:01:55 / Thu Aug 14 11:04:55 2014
GPGPU-Sim PTX: 4700000 instructions simulated : ctaid=(110,0,0) tid=(145,0,0)
GPGPU-Sim uArch: cycles simulated: 21000  inst.: 4628242 (ipc=220.4) sim_rate=39222 (inst/sec) elapsed = 0:0:01:58 / Thu Aug 14 11:04:58 2014
GPGPU-Sim PTX: 4800000 instructions simulated : ctaid=(104,0,0) tid=(144,0,0)
GPGPU-Sim uArch: cycles simulated: 21500  inst.: 4732858 (ipc=220.1) sim_rate=39440 (inst/sec) elapsed = 0:0:02:00 / Thu Aug 14 11:05:00 2014
GPGPU-Sim PTX: 4900000 instructions simulated : ctaid=(105,0,0) tid=(232,0,0)
GPGPU-Sim uArch: cycles simulated: 22000  inst.: 4854677 (ipc=220.7) sim_rate=39792 (inst/sec) elapsed = 0:0:02:02 / Thu Aug 14 11:05:02 2014
GPGPU-Sim PTX: 5000000 instructions simulated : ctaid=(112,0,0) tid=(428,0,0)
GPGPU-Sim uArch: cycles simulated: 22500  inst.: 4936130 (ipc=219.4) sim_rate=39807 (inst/sec) elapsed = 0:0:02:04 / Thu Aug 14 11:05:04 2014
GPGPU-Sim PTX: 5100000 instructions simulated : ctaid=(92,0,0) tid=(294,0,0)
GPGPU-Sim uArch: cycles simulated: 23000  inst.: 5018456 (ipc=218.2) sim_rate=39829 (inst/sec) elapsed = 0:0:02:06 / Thu Aug 14 11:05:06 2014
GPGPU-Sim PTX: 5200000 instructions simulated : ctaid=(99,0,0) tid=(19,0,0)
GPGPU-Sim uArch: cycles simulated: 23500  inst.: 5084547 (ipc=216.4) sim_rate=39723 (inst/sec) elapsed = 0:0:02:08 / Thu Aug 14 11:05:08 2014
GPGPU-Sim PTX: 5300000 instructions simulated : ctaid=(106,0,0) tid=(411,0,0)
GPGPU-Sim uArch: cycles simulated: 24000  inst.: 5147629 (ipc=214.5) sim_rate=39597 (inst/sec) elapsed = 0:0:02:10 / Thu Aug 14 11:05:10 2014
GPGPU-Sim uArch: Shader 9 finished CTA #1 (24165,0), 1 CTAs running
GPGPU-Sim uArch: core:  9, cta: 1 initialized @(24166,0)
GPGPU-Sim uArch: Shader 1 finished CTA #0 (24183,0), 1 CTAs running
GPGPU-Sim uArch: core:  1, cta: 0 initialized @(24184,0)
GPGPU-Sim uArch: Shader 8 finished CTA #1 (24202,0), 1 CTAs running
GPGPU-Sim uArch: core:  8, cta: 1 initialized @(24203,0)
GPGPU-Sim uArch: Shader 7 finished CTA #1 (24255,0), 1 CTAs running
GPGPU-Sim uArch: core:  7, cta: 1 initialized @(24256,0)
GPGPU-Sim uArch: Shader 11 finished CTA #1 (24382,0), 1 CTAs running
GPGPU-Sim uArch: core: 11, cta: 1 initialized @(24383,0)
GPGPU-Sim uArch: Shader 14 finished CTA #1 (24384,0), 1 CTAs running
GPGPU-Sim uArch: core: 14, cta: 1 initialized @(24385,0)
GPGPU-Sim uArch: Shader 2 finished CTA #1 (24386,0), 1 CTAs running
GPGPU-Sim uArch: core:  2, cta: 1 initialized @(24387,0)
GPGPU-Sim uArch: Shader 6 finished CTA #1 (24390,0), 1 CTAs running
GPGPU-Sim uArch: core:  6, cta: 1 initialized @(24391,0)
GPGPU-Sim uArch: Shader 14 finished CTA #0 (24401,0), 1 CTAs running
GPGPU-Sim uArch: core: 14, cta: 0 initialized @(24402,0)
GPGPU-Sim uArch: Shader 2 finished CTA #0 (24421,0), 1 CTAs running
GPGPU-Sim uArch: core:  2, cta: 0 initialized @(24422,0)
GPGPU-Sim uArch: Shader 6 finished CTA #0 (24455,0), 1 CTAs running
GPGPU-Sim uArch: core:  6, cta: 0 initialized @(24456,0)
GPGPU-Sim PTX: 5400000 instructions simulated : ctaid=(115,0,0) tid=(41,0,0)
GPGPU-Sim uArch: Shader 0 finished CTA #0 (24487,0), 1 CTAs running
GPGPU-Sim uArch: core:  0, cta: 0 initialized @(24488,0)
GPGPU-Sim uArch: Shader 3 finished CTA #1 (24491,0), 1 CTAs running
GPGPU-Sim uArch: core:  3, cta: 1 initialized @(24492,0)
GPGPU-Sim uArch: cycles simulated: 24500  inst.: 5247210 (ipc=214.2) sim_rate=39452 (inst/sec) elapsed = 0:0:02:13 / Thu Aug 14 11:05:13 2014
GPGPU-Sim uArch: Shader 1 finished CTA #1 (24590,0), 1 CTAs running
GPGPU-Sim uArch: core:  1, cta: 1 initialized @(24591,0)
GPGPU-Sim uArch: Shader 9 finished CTA #0 (24598,0), 1 CTAs running
GPGPU-Sim uArch: core:  9, cta: 0 initialized @(24599,0)
GPGPU-Sim uArch: Shader 10 finished CTA #1 (24606,0), 1 CTAs running
GPGPU-Sim uArch: core: 10, cta: 1 initialized @(24607,0)
GPGPU-Sim uArch: Shader 4 finished CTA #1 (24663,0), 1 CTAs running
GPGPU-Sim uArch: core:  4, cta: 1 initialized @(24664,0)
GPGPU-Sim uArch: Shader 10 finished CTA #0 (24665,0), 1 CTAs running
GPGPU-Sim uArch: core: 10, cta: 0 initialized @(24666,0)
GPGPU-Sim uArch: Shader 3 finished CTA #0 (24667,0), 1 CTAs running
GPGPU-Sim uArch: core:  3, cta: 0 initialized @(24668,0)
GPGPU-Sim uArch: Shader 5 finished CTA #0 (24669,0), 1 CTAs running
GPGPU-Sim uArch: core:  5, cta: 0 initialized @(24670,0)
GPGPU-Sim uArch: Shader 11 finished CTA #0 (24671,0), 1 CTAs running
GPGPU-Sim uArch: core: 11, cta: 0 initialized @(24672,0)
GPGPU-Sim PTX: 5500000 instructions simulated : ctaid=(136,0,0) tid=(449,0,0)
GPGPU-Sim uArch: Shader 13 finished CTA #0 (24777,0), 1 CTAs running
GPGPU-Sim uArch: core: 13, cta: 0 initialized @(24778,0)
GPGPU-Sim uArch: Shader 8 finished CTA #0 (24780,0), 1 CTAs running
GPGPU-Sim uArch: core:  8, cta: 0 initialized @(24781,0)
GPGPU-Sim uArch: Shader 7 finished CTA #0 (24807,0), 1 CTAs running
GPGPU-Sim uArch: core:  7, cta: 0 initialized @(24808,0)
GPGPU-Sim uArch: Shader 13 finished CTA #1 (24843,0), 1 CTAs running
GPGPU-Sim uArch: core: 13, cta: 1 initialized @(24844,0)
GPGPU-Sim PTX: 5600000 instructions simulated : ctaid=(139,0,0) tid=(303,0,0)
GPGPU-Sim uArch: Shader 5 finished CTA #1 (24965,0), 1 CTAs running
GPGPU-Sim uArch: core:  5, cta: 1 initialized @(24966,0)
GPGPU-Sim uArch: cycles simulated: 25000  inst.: 5477799 (ipc=219.1) sim_rate=40277 (inst/sec) elapsed = 0:0:02:16 / Thu Aug 14 11:05:16 2014
GPGPU-Sim uArch: Shader 12 finished CTA #0 (25095,0), 1 CTAs running
GPGPU-Sim uArch: core: 12, cta: 0 initialized @(25096,0)
GPGPU-Sim PTX: 5700000 instructions simulated : ctaid=(133,0,0) tid=(479,0,0)
GPGPU-Sim uArch: Shader 12 finished CTA #1 (25120,0), 1 CTAs running
GPGPU-Sim uArch: core: 12, cta: 1 initialized @(25121,0)
GPGPU-Sim uArch: Shader 0 finished CTA #1 (25197,0), 1 CTAs running
GPGPU-Sim uArch: core:  0, cta: 1 initialized @(25198,0)
GPGPU-Sim uArch: Shader 4 finished CTA #0 (25204,0), 1 CTAs running
GPGPU-Sim uArch: core:  4, cta: 0 initialized @(25205,0)
GPGPU-Sim PTX: 5800000 instructions simulated : ctaid=(147,0,0) tid=(110,0,0)
GPGPU-Sim uArch: cycles simulated: 25500  inst.: 5673414 (ipc=222.5) sim_rate=40815 (inst/sec) elapsed = 0:0:02:19 / Thu Aug 14 11:05:19 2014
GPGPU-Sim PTX: 5900000 instructions simulated : ctaid=(140,0,0) tid=(440,0,0)
GPGPU-Sim uArch: cycles simulated: 26000  inst.: 5810697 (ipc=223.5) sim_rate=41210 (inst/sec) elapsed = 0:0:02:21 / Thu Aug 14 11:05:21 2014
GPGPU-Sim PTX: 6000000 instructions simulated : ctaid=(132,0,0) tid=(76,0,0)
GPGPU-Sim uArch: cycles simulated: 26500  inst.: 5915015 (ipc=223.2) sim_rate=41363 (inst/sec) elapsed = 0:0:02:23 / Thu Aug 14 11:05:23 2014
GPGPU-Sim PTX: 6100000 instructions simulated : ctaid=(142,0,0) tid=(30,0,0)
GPGPU-Sim PTX: 6200000 instructions simulated : ctaid=(137,0,0) tid=(487,0,0)
GPGPU-Sim uArch: cycles simulated: 27000  inst.: 6029532 (ipc=223.3) sim_rate=41298 (inst/sec) elapsed = 0:0:02:26 / Thu Aug 14 11:05:26 2014
GPGPU-Sim PTX: 6300000 instructions simulated : ctaid=(135,0,0) tid=(280,0,0)
GPGPU-Sim uArch: cycles simulated: 27500  inst.: 6136693 (ipc=223.2) sim_rate=41746 (inst/sec) elapsed = 0:0:02:27 / Thu Aug 14 11:05:27 2014
GPGPU-Sim PTX: 6400000 instructions simulated : ctaid=(121,0,0) tid=(150,0,0)
GPGPU-Sim uArch: cycles simulated: 28000  inst.: 6221014 (ipc=222.2) sim_rate=41751 (inst/sec) elapsed = 0:0:02:29 / Thu Aug 14 11:05:29 2014
GPGPU-Sim PTX: 6500000 instructions simulated : ctaid=(137,0,0) tid=(182,0,0)
GPGPU-Sim uArch: cycles simulated: 28500  inst.: 6300355 (ipc=221.1) sim_rate=41724 (inst/sec) elapsed = 0:0:02:31 / Thu Aug 14 11:05:31 2014
GPGPU-Sim uArch: cycles simulated: 29000  inst.: 6370453 (ipc=219.7) sim_rate=41910 (inst/sec) elapsed = 0:0:02:32 / Thu Aug 14 11:05:32 2014
GPGPU-Sim PTX: 6600000 instructions simulated : ctaid=(134,0,0) tid=(421,0,0)
GPGPU-Sim uArch: cycles simulated: 29500  inst.: 6432101 (ipc=218.0) sim_rate=41766 (inst/sec) elapsed = 0:0:02:34 / Thu Aug 14 11:05:34 2014
GPGPU-Sim uArch: Shader 3 finished CTA #0 (29568,0), 1 CTAs running
GPGPU-Sim uArch: core:  3, cta: 0 initialized @(29569,0)
GPGPU-Sim uArch: Shader 11 finished CTA #0 (29583,0), 1 CTAs running
GPGPU-Sim uArch: core: 11, cta: 0 initialized @(29584,0)
GPGPU-Sim uArch: Shader 3 finished CTA #1 (29585,0), 1 CTAs running
GPGPU-Sim uArch: core:  3, cta: 1 initialized @(29586,0)
GPGPU-Sim uArch: Shader 1 finished CTA #0 (29876,0), 1 CTAs running
GPGPU-Sim uArch: core:  1, cta: 0 initialized @(29877,0)
GPGPU-Sim uArch: Shader 7 finished CTA #1 (29878,0), 1 CTAs running
GPGPU-Sim uArch: core:  7, cta: 1 initialized @(29879,0)
GPGPU-Sim uArch: Shader 2 finished CTA #1 (29894,0), 1 CTAs running
GPGPU-Sim uArch: core:  2, cta: 1 initialized @(29895,0)
GPGPU-Sim uArch: Shader 2 finished CTA #0 (29908,0), 1 CTAs running
GPGPU-Sim uArch: Shader 10 finished CTA #0 (29908,0), 1 CTAs running
GPGPU-Sim uArch: core: 10, cta: 0 initialized @(29909,0)
GPGPU-Sim uArch: core:  2, cta: 0 initialized @(29909,0)
GPGPU-Sim PTX: 6700000 instructions simulated : ctaid=(153,0,0) tid=(304,0,0)
GPGPU-Sim uArch: cycles simulated: 30000  inst.: 6519627 (ipc=217.3) sim_rate=41526 (inst/sec) elapsed = 0:0:02:37 / Thu Aug 14 11:05:37 2014
GPGPU-Sim uArch: Shader 10 finished CTA #1 (30203,0), 1 CTAs running
GPGPU-Sim uArch: core: 10, cta: 1 initialized @(30204,0)
GPGPU-Sim uArch: Shader 8 finished CTA #0 (30205,0), 1 CTAs running
GPGPU-Sim uArch: core:  8, cta: 0 initialized @(30206,0)
GPGPU-Sim uArch: Shader 0 finished CTA #0 (30227,0), 1 CTAs running
GPGPU-Sim uArch: core:  0, cta: 0 initialized @(30228,0)
GPGPU-Sim uArch: Shader 1 finished CTA #1 (30229,0), 1 CTAs running
GPGPU-Sim uArch: core:  1, cta: 1 initialized @(30230,0)
GPGPU-Sim uArch: Shader 6 finished CTA #0 (30243,0), 1 CTAs running
GPGPU-Sim uArch: core:  6, cta: 0 initialized @(30244,0)
GPGPU-Sim PTX: 6800000 instructions simulated : ctaid=(159,0,0) tid=(457,0,0)
GPGPU-Sim uArch: Shader 8 finished CTA #1 (30287,0), 1 CTAs running
GPGPU-Sim uArch: core:  8, cta: 1 initialized @(30288,0)
GPGPU-Sim uArch: Shader 6 finished CTA #1 (30302,0), 1 CTAs running
GPGPU-Sim uArch: core:  6, cta: 1 initialized @(30303,0)
GPGPU-Sim uArch: Shader 14 finished CTA #1 (30410,0), 1 CTAs running
GPGPU-Sim uArch: core: 14, cta: 1 initialized @(30411,0)
GPGPU-Sim uArch: Shader 13 finished CTA #0 (30429,0), 1 CTAs running
GPGPU-Sim uArch: core: 13, cta: 0 initialized @(30430,0)
GPGPU-Sim uArch: Shader 9 finished CTA #0 (30447,0), 1 CTAs running
GPGPU-Sim uArch: core:  9, cta: 0 initialized @(30448,0)
GPGPU-Sim uArch: Shader 7 finished CTA #0 (30477,0), 1 CTAs running
GPGPU-Sim uArch: core:  7, cta: 0 initialized @(30478,0)
GPGPU-Sim uArch: Shader 5 finished CTA #0 (30483,0), 1 CTAs running
GPGPU-Sim uArch: core:  5, cta: 0 initialized @(30484,0)
GPGPU-Sim uArch: Shader 14 finished CTA #0 (30486,0), 1 CTAs running
GPGPU-Sim uArch: core: 14, cta: 0 initialized @(30487,0)
GPGPU-Sim uArch: cycles simulated: 30500  inst.: 6675912 (ipc=218.9) sim_rate=41724 (inst/sec) elapsed = 0:0:02:40 / Thu Aug 14 11:05:40 2014
GPGPU-Sim uArch: Shader 5 finished CTA #1 (30500,0), 1 CTAs running
GPGPU-Sim uArch: core:  5, cta: 1 initialized @(30501,0)
GPGPU-Sim PTX: 6900000 instructions simulated : ctaid=(167,0,0) tid=(404,0,0)
GPGPU-Sim uArch: Shader 4 finished CTA #1 (30630,0), 1 CTAs running
GPGPU-Sim uArch: core:  4, cta: 1 initialized @(30631,0)
GPGPU-Sim uArch: Shader 13 finished CTA #1 (30632,0), 1 CTAs running
GPGPU-Sim uArch: core: 13, cta: 1 initialized @(30633,0)
GPGPU-Sim uArch: Shader 4 finished CTA #0 (30672,0), 1 CTAs running
GPGPU-Sim uArch: core:  4, cta: 0 initialized @(30673,0)
GPGPU-Sim uArch: Shader 12 finished CTA #1 (30704,0), 1 CTAs running
GPGPU-Sim uArch: core: 12, cta: 1 initialized @(30705,0)
GPGPU-Sim PTX: 7000000 instructions simulated : ctaid=(174,0,0) tid=(56,0,0)
GPGPU-Sim uArch: Shader 12 finished CTA #0 (30740,0), 1 CTAs running
GPGPU-Sim uArch: core: 12, cta: 0 initialized @(30741,0)
GPGPU-Sim uArch: Shader 11 finished CTA #1 (30755,0), 1 CTAs running
GPGPU-Sim uArch: core: 11, cta: 1 initialized @(30756,0)
GPGPU-Sim uArch: Shader 9 finished CTA #1 (30770,0), 1 CTAs running
GPGPU-Sim uArch: core:  9, cta: 1 initialized @(30771,0)
GPGPU-Sim uArch: Shader 0 finished CTA #1 (30844,0), 1 CTAs running
GPGPU-Sim uArch: core:  0, cta: 1 initialized @(30845,0)
GPGPU-Sim PTX: 7100000 instructions simulated : ctaid=(178,0,0) tid=(260,0,0)
GPGPU-Sim uArch: cycles simulated: 31000  inst.: 6915485 (ipc=223.1) sim_rate=42426 (inst/sec) elapsed = 0:0:02:43 / Thu Aug 14 11:05:43 2014
GPGPU-Sim PTX: 7200000 instructions simulated : ctaid=(172,0,0) tid=(144,0,0)
GPGPU-Sim uArch: cycles simulated: 31500  inst.: 7057683 (ipc=224.1) sim_rate=42516 (inst/sec) elapsed = 0:0:02:46 / Thu Aug 14 11:05:46 2014
GPGPU-Sim PTX: 7300000 instructions simulated : ctaid=(157,0,0) tid=(101,0,0)
GPGPU-Sim uArch: cycles simulated: 32000  inst.: 7173141 (ipc=224.2) sim_rate=42697 (inst/sec) elapsed = 0:0:02:48 / Thu Aug 14 11:05:48 2014
GPGPU-Sim PTX: 7400000 instructions simulated : ctaid=(169,0,0) tid=(92,0,0)
GPGPU-Sim uArch: cycles simulated: 32500  inst.: 7274489 (ipc=223.8) sim_rate=42791 (inst/sec) elapsed = 0:0:02:50 / Thu Aug 14 11:05:50 2014
GPGPU-Sim PTX: 7500000 instructions simulated : ctaid=(168,0,0) tid=(110,0,0)
GPGPU-Sim PTX: 7600000 instructions simulated : ctaid=(179,0,0) tid=(359,0,0)
GPGPU-Sim uArch: cycles simulated: 33000  inst.: 7393687 (ipc=224.1) sim_rate=42986 (inst/sec) elapsed = 0:0:02:52 / Thu Aug 14 11:05:52 2014
GPGPU-Sim PTX: 7700000 instructions simulated : ctaid=(164,0,0) tid=(312,0,0)
GPGPU-Sim uArch: cycles simulated: 33500  inst.: 7493542 (ipc=223.7) sim_rate=43315 (inst/sec) elapsed = 0:0:02:53 / Thu Aug 14 11:05:53 2014
GPGPU-Sim PTX: 7800000 instructions simulated : ctaid=(169,0,0) tid=(410,0,0)
GPGPU-Sim uArch: cycles simulated: 34000  inst.: 7576913 (ipc=222.9) sim_rate=43296 (inst/sec) elapsed = 0:0:02:55 / Thu Aug 14 11:05:55 2014
GPGPU-Sim uArch: cycles simulated: 34500  inst.: 7645655 (ipc=221.6) sim_rate=43195 (inst/sec) elapsed = 0:0:02:57 / Thu Aug 14 11:05:57 2014
GPGPU-Sim PTX: 7900000 instructions simulated : ctaid=(164,0,0) tid=(323,0,0)
GPGPU-Sim uArch: Shader 3 finished CTA #0 (34897,0), 1 CTAs running
GPGPU-Sim uArch: core:  3, cta: 0 initialized @(34898,0)
GPGPU-Sim uArch: Shader 3 finished CTA #1 (34914,0), 1 CTAs running
GPGPU-Sim uArch: core:  3, cta: 1 initialized @(34915,0)
GPGPU-Sim uArch: Shader 2 finished CTA #0 (34946,0), 1 CTAs running
GPGPU-Sim uArch: core:  2, cta: 0 initialized @(34947,0)
GPGPU-Sim uArch: Shader 2 finished CTA #1 (34963,0), 1 CTAs running
GPGPU-Sim uArch: core:  2, cta: 1 initialized @(34964,0)
GPGPU-Sim uArch: cycles simulated: 35000  inst.: 7714017 (ipc=220.4) sim_rate=43095 (inst/sec) elapsed = 0:0:02:59 / Thu Aug 14 11:05:59 2014
GPGPU-Sim uArch: Shader 10 finished CTA #0 (35151,0), 1 CTAs running
GPGPU-Sim uArch: core: 10, cta: 0 initialized @(35152,0)
GPGPU-Sim uArch: Shader 10 finished CTA #1 (35168,0), 1 CTAs running
GPGPU-Sim uArch: core: 10, cta: 1 initialized @(35169,0)
GPGPU-Sim PTX: 8000000 instructions simulated : ctaid=(185,0,0) tid=(396,0,0)
GPGPU-Sim uArch: Shader 11 finished CTA #0 (35409,0), 1 CTAs running
GPGPU-Sim uArch: core: 11, cta: 0 initialized @(35410,0)
GPGPU-Sim uArch: Shader 9 finished CTA #0 (35481,0), 1 CTAs running
GPGPU-Sim uArch: core:  9, cta: 0 initialized @(35482,0)
GPGPU-Sim uArch: Shader 13 finished CTA #0 (35485,0), 1 CTAs running
GPGPU-Sim uArch: core: 13, cta: 0 initialized @(35486,0)
GPGPU-Sim uArch: cycles simulated: 35500  inst.: 7821624 (ipc=220.3) sim_rate=42975 (inst/sec) elapsed = 0:0:03:02 / Thu Aug 14 11:06:02 2014
GPGPU-Sim PTX: 8100000 instructions simulated : ctaid=(188,0,0) tid=(199,0,0)
GPGPU-Sim uArch: Shader 6 finished CTA #1 (35597,0), 1 CTAs running
GPGPU-Sim uArch: core:  6, cta: 1 initialized @(35598,0)
GPGPU-Sim uArch: Shader 13 finished CTA #1 (35749,0), 1 CTAs running
GPGPU-Sim uArch: core: 13, cta: 1 initialized @(35750,0)
GPGPU-Sim uArch: Shader 6 finished CTA #0 (35752,0), 1 CTAs running
GPGPU-Sim uArch: core:  6, cta: 0 initialized @(35753,0)
GPGPU-Sim uArch: Shader 7 finished CTA #0 (35771,0), 1 CTAs running
GPGPU-Sim uArch: core:  7, cta: 0 initialized @(35772,0)
GPGPU-Sim uArch: Shader 1 finished CTA #0 (35873,0), 1 CTAs running
GPGPU-Sim uArch: core:  1, cta: 0 initialized @(35874,0)
GPGPU-Sim uArch: Shader 7 finished CTA #1 (35879,0), 1 CTAs running
GPGPU-Sim uArch: core:  7, cta: 1 initialized @(35880,0)
GPGPU-Sim uArch: Shader 14 finished CTA #1 (35906,0), 1 CTAs running
GPGPU-Sim uArch: core: 14, cta: 1 initialized @(35907,0)
GPGPU-Sim PTX: 8200000 instructions simulated : ctaid=(195,0,0) tid=(351,0,0)
GPGPU-Sim uArch: Shader 1 finished CTA #1 (35949,0), 1 CTAs running
GPGPU-Sim uArch: core:  1, cta: 1 initialized @(35950,0)
GPGPU-Sim uArch: cycles simulated: 36000  inst.: 7974192 (ipc=221.5) sim_rate=42642 (inst/sec) elapsed = 0:0:03:07 / Thu Aug 14 11:06:07 2014
GPGPU-Sim uArch: Shader 4 finished CTA #0 (36025,0), 1 CTAs running
GPGPU-Sim uArch: core:  4, cta: 0 initialized @(36026,0)
GPGPU-Sim uArch: Shader 5 finished CTA #1 (36101,0), 1 CTAs running
GPGPU-Sim uArch: core:  5, cta: 1 initialized @(36102,0)
GPGPU-Sim uArch: Shader 4 finished CTA #1 (36108,0), 1 CTAs running
GPGPU-Sim uArch: core:  4, cta: 1 initialized @(36109,0)
GPGPU-Sim PTX: 8300000 instructions simulated : ctaid=(198,0,0) tid=(308,0,0)
GPGPU-Sim uArch: Shader 0 finished CTA #0 (36208,0), 1 CTAs running
GPGPU-Sim uArch: core:  0, cta: 0 initialized @(36209,0)
GPGPU-Sim uArch: Shader 5 finished CTA #0 (36242,0), 1 CTAs running
GPGPU-Sim uArch: core:  5, cta: 0 initialized @(36243,0)
GPGPU-Sim uArch: Shader 0 finished CTA #1 (36248,0), 1 CTAs running
GPGPU-Sim uArch: core:  0, cta: 1 initialized @(36249,0)
GPGPU-Sim uArch: Shader 8 finished CTA #0 (36254,0), 1 CTAs running
GPGPU-Sim uArch: core:  8, cta: 0 initialized @(36255,0)
GPGPU-Sim uArch: Shader 8 finished CTA #1 (36289,0), 1 CTAs running
GPGPU-Sim uArch: core:  8, cta: 1 initialized @(36290,0)
GPGPU-Sim uArch: Shader 12 finished CTA #1 (36346,0), 1 CTAs running
GPGPU-Sim uArch: core: 12, cta: 1 initialized @(36347,0)
GPGPU-Sim PTX: 8400000 instructions simulated : ctaid=(190,0,0) tid=(126,0,0)
GPGPU-Sim uArch: Shader 11 finished CTA #1 (36429,0), 1 CTAs running
GPGPU-Sim uArch: core: 11, cta: 1 initialized @(36430,0)
GPGPU-Sim uArch: Shader 14 finished CTA #0 (36498,0), 1 CTAs running
GPGPU-Sim uArch: core: 14, cta: 0 initialized @(36499,0)
GPGPU-Sim uArch: cycles simulated: 36500  inst.: 8182615 (ipc=224.2) sim_rate=42617 (inst/sec) elapsed = 0:0:03:12 / Thu Aug 14 11:06:12 2014
GPGPU-Sim uArch: Shader 12 finished CTA #0 (36533,0), 1 CTAs running
GPGPU-Sim uArch: core: 12, cta: 0 initialized @(36534,0)
GPGPU-Sim PTX: 8500000 instructions simulated : ctaid=(207,0,0) tid=(417,0,0)
GPGPU-Sim uArch: Shader 9 finished CTA #1 (36667,0), 1 CTAs running
GPGPU-Sim uArch: core:  9, cta: 1 initialized @(36668,0)
GPGPU-Sim PTX: 8600000 instructions simulated : ctaid=(201,0,0) tid=(304,0,0)
GPGPU-Sim uArch: cycles simulated: 37000  inst.: 8345394 (ipc=225.6) sim_rate=42796 (inst/sec) elapsed = 0:0:03:15 / Thu Aug 14 11:06:15 2014
GPGPU-Sim PTX: 8700000 instructions simulated : ctaid=(204,0,0) tid=(240,0,0)
GPGPU-Sim uArch: cycles simulated: 37500  inst.: 8460805 (ipc=225.6) sim_rate=42516 (inst/sec) elapsed = 0:0:03:19 / Thu Aug 14 11:06:19 2014
GPGPU-Sim PTX: 8800000 instructions simulated : ctaid=(209,0,0) tid=(169,0,0)
GPGPU-Sim uArch: cycles simulated: 38000  inst.: 8583154 (ipc=225.9) sim_rate=42490 (inst/sec) elapsed = 0:0:03:22 / Thu Aug 14 11:06:22 2014
GPGPU-Sim PTX: 8900000 instructions simulated : ctaid=(203,0,0) tid=(122,0,0)
GPGPU-Sim uArch: cycles simulated: 38500  inst.: 8670195 (ipc=225.2) sim_rate=42500 (inst/sec) elapsed = 0:0:03:24 / Thu Aug 14 11:06:24 2014
GPGPU-Sim PTX: 9000000 instructions simulated : ctaid=(201,0,0) tid=(445,0,0)
GPGPU-Sim uArch: cycles simulated: 39000  inst.: 8790238 (ipc=225.4) sim_rate=42464 (inst/sec) elapsed = 0:0:03:27 / Thu Aug 14 11:06:27 2014
GPGPU-Sim PTX: 9100000 instructions simulated : ctaid=(194,0,0) tid=(230,0,0)
GPGPU-Sim uArch: cycles simulated: 39500  inst.: 8867636 (ipc=224.5) sim_rate=42428 (inst/sec) elapsed = 0:0:03:29 / Thu Aug 14 11:06:29 2014
GPGPU-Sim PTX: 9200000 instructions simulated : ctaid=(205,0,0) tid=(131,0,0)
GPGPU-Sim uArch: cycles simulated: 40000  inst.: 8940506 (ipc=223.5) sim_rate=42172 (inst/sec) elapsed = 0:0:03:32 / Thu Aug 14 11:06:32 2014
GPGPU-Sim uArch: Shader 11 finished CTA #0 (40387,0), 1 CTAs running
GPGPU-Sim uArch: core: 11, cta: 0 initialized @(40388,0)
GPGPU-Sim uArch: Shader 13 finished CTA #1 (40430,0), 1 CTAs running
GPGPU-Sim uArch: core: 13, cta: 1 initialized @(40431,0)
GPGPU-Sim uArch: Shader 13 finished CTA #0 (40455,0), 1 CTAs running
GPGPU-Sim uArch: core: 13, cta: 0 initialized @(40456,0)
GPGPU-Sim uArch: Shader 10 finished CTA #1 (40490,0), 1 CTAs running
GPGPU-Sim uArch: core: 10, cta: 1 initialized @(40491,0)
GPGPU-Sim uArch: cycles simulated: 40500  inst.: 9007789 (ipc=222.4) sim_rate=42092 (inst/sec) elapsed = 0:0:03:34 / Thu Aug 14 11:06:34 2014
GPGPU-Sim uArch: Shader 9 finished CTA #0 (40500,0), 1 CTAs running
GPGPU-Sim uArch: core:  9, cta: 0 initialized @(40501,0)
GPGPU-Sim uArch: Shader 3 finished CTA #0 (40513,0), 1 CTAs running
GPGPU-Sim uArch: core:  3, cta: 0 initialized @(40514,0)
GPGPU-Sim PTX: 9300000 instructions simulated : ctaid=(212,0,0) tid=(153,0,0)
GPGPU-Sim uArch: Shader 2 finished CTA #1 (40549,0), 1 CTAs running
GPGPU-Sim uArch: core:  2, cta: 1 initialized @(40550,0)
GPGPU-Sim uArch: Shader 3 finished CTA #1 (40570,0), 1 CTAs running
GPGPU-Sim uArch: core:  3, cta: 1 initialized @(40571,0)
GPGPU-Sim uArch: Shader 2 finished CTA #0 (40640,0), 1 CTAs running
GPGPU-Sim uArch: core:  2, cta: 0 initialized @(40641,0)
GPGPU-Sim uArch: Shader 10 finished CTA #0 (40781,0), 1 CTAs running
GPGPU-Sim uArch: core: 10, cta: 0 initialized @(40782,0)
GPGPU-Sim PTX: 9400000 instructions simulated : ctaid=(218,0,0) tid=(276,0,0)
GPGPU-Sim uArch: cycles simulated: 41000  inst.: 9151222 (ipc=223.2) sim_rate=41978 (inst/sec) elapsed = 0:0:03:38 / Thu Aug 14 11:06:38 2014
GPGPU-Sim uArch: Shader 6 finished CTA #1 (41180,0), 1 CTAs running
GPGPU-Sim uArch: core:  6, cta: 1 initialized @(41181,0)
GPGPU-Sim uArch: Shader 6 finished CTA #0 (41233,0), 1 CTAs running
GPGPU-Sim uArch: core:  6, cta: 0 initialized @(41234,0)
GPGPU-Sim PTX: 9500000 instructions simulated : ctaid=(212,0,0) tid=(82,0,0)
GPGPU-Sim uArch: Shader 5 finished CTA #0 (41385,0), 1 CTAs running
GPGPU-Sim uArch: core:  5, cta: 0 initialized @(41386,0)
GPGPU-Sim uArch: Shader 14 finished CTA #1 (41406,0), 1 CTAs running
GPGPU-Sim uArch: core: 14, cta: 1 initialized @(41407,0)
GPGPU-Sim uArch: Shader 7 finished CTA #0 (41454,0), 1 CTAs running
GPGPU-Sim uArch: core:  7, cta: 0 initialized @(41455,0)
GPGPU-Sim uArch: Shader 4 finished CTA #1 (41470,0), 1 CTAs running
GPGPU-Sim uArch: core:  4, cta: 1 initialized @(41471,0)
GPGPU-Sim uArch: Shader 7 finished CTA #1 (41475,0), 1 CTAs running
GPGPU-Sim uArch: core:  7, cta: 1 initialized @(41476,0)
GPGPU-Sim uArch: Shader 8 finished CTA #0 (41476,0), 1 CTAs running
GPGPU-Sim uArch: core:  8, cta: 0 initialized @(41477,0)
GPGPU-Sim uArch: Shader 14 finished CTA #0 (41482,0), 1 CTAs running
GPGPU-Sim uArch: core: 14, cta: 0 initialized @(41483,0)
GPGPU-Sim uArch: Shader 4 finished CTA #0 (41487,0), 1 CTAs running
GPGPU-Sim uArch: core:  4, cta: 0 initialized @(41488,0)
GPGPU-Sim uArch: cycles simulated: 41500  inst.: 9276762 (ipc=223.5) sim_rate=41787 (inst/sec) elapsed = 0:0:03:42 / Thu Aug 14 11:06:42 2014
GPGPU-Sim PTX: 9600000 instructions simulated : ctaid=(227,0,0) tid=(280,0,0)
GPGPU-Sim uArch: Shader 8 finished CTA #1 (41575,0), 1 CTAs running
GPGPU-Sim uArch: core:  8, cta: 1 initialized @(41576,0)
GPGPU-Sim uArch: Shader 1 finished CTA #0 (41683,0), 1 CTAs running
GPGPU-Sim uArch: core:  1, cta: 0 initialized @(41684,0)
GPGPU-Sim uArch: Shader 5 finished CTA #1 (41696,0), 1 CTAs running
GPGPU-Sim uArch: core:  5, cta: 1 initialized @(41697,0)
GPGPU-Sim uArch: Shader 0 finished CTA #0 (41698,0), 1 CTAs running
GPGPU-Sim uArch: core:  0, cta: 0 initialized @(41699,0)
GPGPU-Sim PTX: 9700000 instructions simulated : ctaid=(230,0,0) tid=(193,0,0)
GPGPU-Sim uArch: Shader 1 finished CTA #1 (41910,0), 1 CTAs running
GPGPU-Sim uArch: core:  1, cta: 1 initialized @(41911,0)
GPGPU-Sim uArch: cycles simulated: 42000  inst.: 9462196 (ipc=225.3) sim_rate=41868 (inst/sec) elapsed = 0:0:03:46 / Thu Aug 14 11:06:46 2014
GPGPU-Sim uArch: Shader 0 finished CTA #1 (42043,0), 1 CTAs running
GPGPU-Sim uArch: core:  0, cta: 1 initialized @(42044,0)
GPGPU-Sim PTX: 9800000 instructions simulated : ctaid=(232,0,0) tid=(146,0,0)
GPGPU-Sim uArch: Shader 12 finished CTA #1 (42173,0), 1 CTAs running
GPGPU-Sim uArch: core: 12, cta: 1 initialized @(42174,0)
GPGPU-Sim uArch: Shader 9 finished CTA #1 (42337,0), 1 CTAs running
GPGPU-Sim uArch: core:  9, cta: 1 initialized @(42338,0)
GPGPU-Sim uArch: Shader 12 finished CTA #0 (42388,0), 1 CTAs running
GPGPU-Sim uArch: core: 12, cta: 0 initialized @(42389,0)
GPGPU-Sim PTX: 9900000 instructions simulated : ctaid=(223,0,0) tid=(463,0,0)
GPGPU-Sim uArch: cycles simulated: 42500  inst.: 9610250 (ipc=226.1) sim_rate=41966 (inst/sec) elapsed = 0:0:03:49 / Thu Aug 14 11:06:49 2014
GPGPU-Sim uArch: Shader 11 finished CTA #1 (42502,0), 1 CTAs running
GPGPU-Sim uArch: core: 11, cta: 1 initialized @(42503,0)
GPGPU-Sim PTX: 10000000 instructions simulated : ctaid=(225,0,0) tid=(284,0,0)
GPGPU-Sim uArch: cycles simulated: 43000  inst.: 9753692 (ipc=226.8) sim_rate=42041 (inst/sec) elapsed = 0:0:03:52 / Thu Aug 14 11:06:52 2014
GPGPU-Sim PTX: 10100000 instructions simulated : ctaid=(239,0,0) tid=(462,0,0)
GPGPU-Sim uArch: cycles simulated: 43500  inst.: 9847283 (ipc=226.4) sim_rate=42082 (inst/sec) elapsed = 0:0:03:54 / Thu Aug 14 11:06:54 2014
GPGPU-Sim PTX: 10200000 instructions simulated : ctaid=(213,0,0) tid=(420,0,0)
GPGPU-Sim uArch: cycles simulated: 44000  inst.: 9959094 (ipc=226.3) sim_rate=42021 (inst/sec) elapsed = 0:0:03:57 / Thu Aug 14 11:06:57 2014
GPGPU-Sim PTX: 10300000 instructions simulated : ctaid=(224,0,0) tid=(222,0,0)
GPGPU-Sim uArch: cycles simulated: 44500  inst.: 10063132 (ipc=226.1) sim_rate=42105 (inst/sec) elapsed = 0:0:03:59 / Thu Aug 14 11:06:59 2014
GPGPU-Sim PTX: 10400000 instructions simulated : ctaid=(221,0,0) tid=(407,0,0)
GPGPU-Sim uArch: cycles simulated: 45000  inst.: 10143370 (ipc=225.4) sim_rate=42088 (inst/sec) elapsed = 0:0:04:01 / Thu Aug 14 11:07:01 2014
GPGPU-Sim PTX: 10500000 instructions simulated : ctaid=(237,0,0) tid=(91,0,0)
GPGPU-Sim uArch: cycles simulated: 45500  inst.: 10212171 (ipc=224.4) sim_rate=42025 (inst/sec) elapsed = 0:0:04:03 / Thu Aug 14 11:07:03 2014
GPGPU-Sim uArch: Shader 13 finished CTA #0 (45805,0), 1 CTAs running
GPGPU-Sim uArch: core: 13, cta: 0 initialized @(45806,0)
GPGPU-Sim uArch: Shader 13 finished CTA #1 (45822,0), 1 CTAs running
GPGPU-Sim uArch: core: 13, cta: 1 initialized @(45823,0)
GPGPU-Sim uArch: Shader 2 finished CTA #1 (45953,0), 1 CTAs running
GPGPU-Sim uArch: core:  2, cta: 1 initialized @(45954,0)
GPGPU-Sim PTX: 10600000 instructions simulated : ctaid=(231,0,0) tid=(386,0,0)
GPGPU-Sim uArch: Shader 2 finished CTA #0 (45978,0), 1 CTAs running
GPGPU-Sim uArch: core:  2, cta: 0 initialized @(45979,0)
GPGPU-Sim uArch: cycles simulated: 46000  inst.: 10288028 (ipc=223.7) sim_rate=41821 (inst/sec) elapsed = 0:0:04:06 / Thu Aug 14 11:07:06 2014
GPGPU-Sim uArch: Shader 10 finished CTA #0 (46146,0), 1 CTAs running
GPGPU-Sim uArch: core: 10, cta: 0 initialized @(46147,0)
GPGPU-Sim uArch: Shader 10 finished CTA #1 (46163,0), 1 CTAs running
GPGPU-Sim uArch: core: 10, cta: 1 initialized @(46164,0)
GPGPU-Sim uArch: Shader 3 finished CTA #1 (46210,0), 1 CTAs running
GPGPU-Sim uArch: core:  3, cta: 1 initialized @(46211,0)
GPGPU-Sim uArch: Shader 3 finished CTA #0 (46269,0), 1 CTAs running
GPGPU-Sim uArch: core:  3, cta: 0 initialized @(46270,0)
GPGPU-Sim PTX: 10700000 instructions simulated : ctaid=(244,0,0) tid=(293,0,0)
GPGPU-Sim uArch: cycles simulated: 46500  inst.: 10406834 (ipc=223.8) sim_rate=41794 (inst/sec) elapsed = 0:0:04:09 / Thu Aug 14 11:07:09 2014
GPGPU-Sim uArch: Shader 11 finished CTA #0 (46592,0), 1 CTAs running
GPGPU-Sim uArch: core: 11, cta: 0 initialized @(46593,0)
GPGPU-Sim uArch: Shader 6 finished CTA #0 (46611,0), 1 CTAs running
GPGPU-Sim uArch: core:  6, cta: 0 initialized @(46612,0)
GPGPU-Sim uArch: Shader 6 finished CTA #1 (46694,0), 1 CTAs running
GPGPU-Sim uArch: core:  6, cta: 1 initialized @(46695,0)
GPGPU-Sim PTX: 10800000 instructions simulated : ctaid=(240,0,0) tid=(304,0,0)
GPGPU-Sim uArch: Shader 5 finished CTA #0 (46817,0), 1 CTAs running
GPGPU-Sim uArch: core:  5, cta: 0 initialized @(46818,0)
GPGPU-Sim uArch: cycles simulated: 47000  inst.: 10522122 (ipc=223.9) sim_rate=41589 (inst/sec) elapsed = 0:0:04:13 / Thu Aug 14 11:07:13 2014
GPGPU-Sim uArch: Shader 9 finished CTA #0 (47089,0), 1 CTAs running
GPGPU-Sim uArch: core:  9, cta: 0 initialized @(47090,0)
GPGPU-Sim uArch: Shader 5 finished CTA #1 (47097,0), 1 CTAs running
GPGPU-Sim uArch: core:  5, cta: 1 initialized @(47098,0)
GPGPU-Sim uArch: Shader 14 finished CTA #1 (47099,0), 1 CTAs running
GPGPU-Sim uArch: core: 14, cta: 1 initialized @(47100,0)
GPGPU-Sim uArch: Shader 4 finished CTA #0 (47101,0), 1 CTAs running
GPGPU-Sim uArch: core:  4, cta: 0 initialized @(47102,0)
GPGPU-Sim uArch: Shader 4 finished CTA #1 (47118,0), 1 CTAs running
GPGPU-Sim uArch: core:  4, cta: 1 initialized @(47119,0)
GPGPU-Sim PTX: 10900000 instructions simulated : ctaid=(247,0,0) tid=(205,0,0)
GPGPU-Sim uArch: Shader 0 finished CTA #1 (47314,0), 1 CTAs running
GPGPU-Sim uArch: core:  0, cta: 1 initialized @(47315,0)
GPGPU-Sim uArch: Shader 14 finished CTA #0 (47322,0), 1 CTAs running
GPGPU-Sim uArch: core: 14, cta: 0 initialized @(47323,0)
GPGPU-Sim uArch: Shader 8 finished CTA #1 (47350,0), 1 CTAs running
GPGPU-Sim uArch: core:  8, cta: 1 initialized @(47351,0)
GPGPU-Sim uArch: Shader 1 finished CTA #1 (47354,0), 1 CTAs running
GPGPU-Sim uArch: core:  1, cta: 1 initialized @(47355,0)
GPGPU-Sim uArch: Shader 8 finished CTA #0 (47367,0), 1 CTAs running
GPGPU-Sim uArch: core:  8, cta: 0 initialized @(47368,0)
GPGPU-Sim PTX: 11000000 instructions simulated : ctaid=(246,0,0) tid=(449,0,0)
GPGPU-Sim uArch: cycles simulated: 47500  inst.: 10686670 (ipc=225.0) sim_rate=41582 (inst/sec) elapsed = 0:0:04:17 / Thu Aug 14 11:07:17 2014
GPGPU-Sim uArch: Shader 1 finished CTA #0 (47665,0), 1 CTAs running
GPGPU-Sim uArch: core:  1, cta: 0 initialized @(47666,0)
GPGPU-Sim uArch: Shader 12 finished CTA #0 (47668,0), 1 CTAs running
GPGPU-Sim uArch: core: 12, cta: 0 initialized @(47669,0)
GPGPU-Sim uArch: Shader 12 finished CTA #1 (47693,0), 1 CTAs running
GPGPU-Sim uArch: core: 12, cta: 1 initialized @(47694,0)
GPGPU-Sim PTX: 11100000 instructions simulated : ctaid=(250,0,0) tid=(180,0,0)
GPGPU-Sim uArch: Shader 7 finished CTA #1 (47838,0), 1 CTAs running
GPGPU-Sim uArch: core:  7, cta: 1 initialized @(47839,0)
GPGPU-Sim uArch: Shader 7 finished CTA #0 (47873,0), 1 CTAs running
GPGPU-Sim uArch: core:  7, cta: 0 initialized @(47874,0)
GPGPU-Sim uArch: Shader 0 finished CTA #0 (47959,0), 1 CTAs running
GPGPU-Sim uArch: core:  0, cta: 0 initialized @(47960,0)
GPGPU-Sim uArch: cycles simulated: 48000  inst.: 10829537 (ipc=225.6) sim_rate=41652 (inst/sec) elapsed = 0:0:04:20 / Thu Aug 14 11:07:20 2014
GPGPU-Sim PTX: 11200000 instructions simulated : ctaid=(266,0,0) tid=(130,0,0)
GPGPU-Sim uArch: Shader 11 finished CTA #1 (48341,0), 1 CTAs running
GPGPU-Sim uArch: core: 11, cta: 1 initialized @(48342,0)
GPGPU-Sim PTX: 11300000 instructions simulated : ctaid=(264,0,0) tid=(209,0,0)
GPGPU-Sim uArch: cycles simulated: 48500  inst.: 10978039 (ipc=226.4) sim_rate=41741 (inst/sec) elapsed = 0:0:04:23 / Thu Aug 14 11:07:23 2014
[...]
dq_lat_table:0 	0 	0 	0 	0 	0 	0 	0 	0 	0 	0 	0 	0 	0 	0 	0 	0 	0 	0 	0 	0 	0 	0 	0 	0 	0 	0 	0 	0 	0 	0 	0 	
mf_lat_table:0 	0 	0 	0 	0 	0 	0 	569086 	488990 	752 	0 	0 	0 	0 	0 	0 	0 	0 	0 	0 	0 	0 	0 	0 	0 	0 	0 	0 	0 	0 	0 	0 	
icnt2mem_lat_table:0 	0 	0 	791477 	246495 	20228 	586 	228 	9 	0 	0 	0 	0 	0 	0 	0 	0 	0 	0 	0 	0 	0 	0 	0 	
icnt2sh_lat_table:0 	0 	0 	151057 	259378 	330662 	200344 	7387 	0 	0 	0 	120 	180 	474 	863 	1748 	3545 	7092 	14078 	28052 	50801 	3047 	0 	0 	
mf_lat_pw_table:0 	0 	0 	0 	0 	0 	0 	2927 	1392 	0 	0 	0 	0 	0 	0 	0 	0 	0 	0 	0 	0 	0 	0 	0 	0 	0 	0 	0 	0 	0 	0 	0 	
maximum concurrent accesses to same row:
dram[0]:         5         5         6         5        12        10        20        14         6         9         5         7        10         9         8         6 
dram[1]:         6         5         5         5        11        12        21        21         7        10         6         7        10         6         5         5 
dram[2]:         5         5         6         5        11        11        16        19         6         5         6         5        10         8         6         6 
dram[3]:         5         5         5         5        14        11        21        17         8         9         6         7        10         7         6         6 
dram[4]:         5         5         6         5         8        10        15        21         8         8         6         7         9         6         8         6 
dram[5]:         6         5         6         6        10        13        17        19         7         5         6         5         9        10         6         6 
maximum service time to same row:
dram[0]:      7734      7156      8533      6750     12571      8434      7446      6998      8365      7254      8108     13137      9868      8086      8653      8000 
dram[1]:      7918      8247      6937      6112      8556     10440      7990      8913      7855      7559      9716     12387      9887      9275     10270      6941 
dram[2]:     13704      7980      6784      9959      8410      9931      7031      8462      6536      8203      6962     10605      8570      6843      9535     10397 
dram[3]:      6557      9781      7878      9963      8291      9122      6446      6528      7040      8206      6148     12222     11032      8827      8113      9761 
dram[4]:      7728      7950      7941      9719      8342      9122      7789      7704      7128      8406      9042     12216      9803      9280      8126     10087 
dram[5]:      9507      6929      9931      9697      8255     11462     11022      8503      8224      6407      7860     12263      9263      7786      8538      6271 
average row accesses per activate:
dram[0]:  1.838262  1.846663  1.819426  1.850069  1.808590  1.832319  1.771321  1.781654  1.823105  1.814253  1.801839  1.794273  1.894190  1.863889  1.848513  1.823256 
dram[1]:  1.825555  1.812047  1.859066  1.784956  1.811608  1.798099  1.791986  1.760563  1.834803  1.840835  1.794860  1.818263  1.844898  1.858415  1.845324  1.824675 
dram[2]:  1.843101  1.846685  1.847017  1.847458  1.830145  1.818057  1.765526  1.770463  1.820000  1.823053  1.789474  1.800358  1.860278  1.848724  1.833483  1.810873 
dram[3]:  1.834185  1.839584  1.832525  1.824521  1.818264  1.832948  1.769199  1.764804  1.838100  1.831696  1.764472  1.797147  1.862007  1.841497  1.851516  1.817934 
dram[4]:  1.835129  1.827027  1.859116  1.852549  1.809872  1.826046  1.778109  1.794710  1.840930  1.829996  1.826264  1.797088  1.861601  1.851664  1.835753  1.838784 
dram[5]:  1.838694  1.866576  1.868049  1.831369  1.837013  1.833882  1.785163  1.777869  1.830596  1.827832  1.774138  1.794895  1.837040  1.842630  1.842328  1.848330 
average row locality = 387213/212374 = 1.823260
number of total memory accesses made:
dram[0]:         0         0         0         0         0         0         0         0         0         0         0         0         0         0         0         0 
dram[1]:         0         0         0         0         0         0         0         0         0         0         0         0         0         0         0         0 
dram[2]:         0         0         0         0         0         0         0         0         0         0         0         0         0         0         0         0 
dram[3]:         0         0         0         0         0         0         0         0         0         0         0         0         0         0         0         0 
dram[4]:         0         0         0         0         0         0         0         0         0         0         0         0         0         0         0         0 
dram[5]:         0         0         0         0         0         0         0         0         0         0         0         0         0         0         0         0 
total accesses: 0
min_bank_accesses = 0!
min_chip_accesses = 0!
number of total read accesses:
dram[0]:      4023      3813      4121      4035      3870      3906      4177      4077      3911      3815      3847      4006      3889      3900      3963      3849 
dram[1]:      3947      3914      4142      4034      3929      3966      4144      4065      3826      3831      3843      4015      3953      3829      4035      3872 
dram[2]:      3910      3911      4117      4033      3918      3981      4119      4028      3874      3908      3872      3952      4020      3855      4000      3909 
dram[3]:      3865      3986      4158      4003      3996      3955      4202      4172      3854      3973      3926      3962      4031      3873      4022      3926 
dram[4]:      3827      3976      4038      4033      3954      3920      4115      4215      3814      3970      3979      3881      3993      3889      3970      3929 
dram[5]:      3795      4049      3964      4040      3905      3891      4103      4260      3772      3965      4047      3869      3935      3949      3854      3928 
total reads: 380687
bank skew: 4260/3772 = 1.13
chip skew: 63904/63202 = 1.01
number of total write accesses:
dram[0]:        80        89         0         0         4         6        60        60       129       131        72        67       121       126        76        71 
dram[1]:        82        87         0         0         4         6        60        60       128       136        68        67       115       135        69        62 
dram[2]:        84       100         0         0         4         6        60        60       130       141        72        70       134       129        74        55 
dram[3]:        84        85         0         0         6         6        60        60       131       130        67        69       125       112        68        68 
dram[4]:        91        80         0         0         6         6        60        60       144       142        68        69       123       118        76        63 
dram[5]:        92        78         0         0         6         6        60        62       129       133        69        69       112       114        72        57 
total reads: 6526
min_bank_accesses = 0!
chip skew: 1119/1059 = 1.06
average mf latency per bank:
dram[0]:        394       399       349       351      1309      1108      1306      1315       505       509       529       525       482       482       450       458
dram[1]:        394       401       351       355      1142      1344      1302      1505       505       513       532       531       479       494       447       466
dram[2]:        396       398       350       356      1147      1595      1317      1395       507       504       527       537       479       490       455       462
dram[3]:        397       401       350       360      1320      1494      1422      1368       505       513       536       528       478       492       460       459
dram[4]:        391       403       348       359      1075      1516      1286      1361       503       515       519       542       469       489       447       469
dram[5]:        395       398       349       356      1091      1591      1296      1401       509       513       525       546       481       487       449       472
maximum mf latency per bank:
dram[0]:        588       554       622       547       606       547       598       587       595       553       544       588       552       555       622       517
dram[1]:        605       544       642       540       596       572       599       553       566       572       539       545       604       543       583       565
dram[2]:        550       571       620       561       552       582       551       571       554       549       585       567       605       524       591       542
dram[3]:        543       592       599       565       544       586       541       610       540       521       585       576       547       638       627       546
dram[4]:        565       561       520       583       522       566       565       584       520       526       545       545       552       536       525       564
dram[5]:        561       559       530       540       543       596       569       616       532       499       549       548       607       558       519       527

Number of Memory Banks Accessed per Memory Operation per Warp (from 0):
0	0	0	0	0	0	0	0	0	0	0	0	0	0	0	0	0	0	0	0	0	0	0	0	0	0	0	0	0	0	0	0	0	0	0	0	0	0	0	0	0	0	0	0	0	0	0	0	0	0	0	0	0	0	0	0	0	0	0	0	0	0	0	0	0	0	0	0	0	0	0	0	0	0	0	0	0	0	0	0	0	0	0	0	0	0	0	0	0	0	0	0	0	0	0	0	
Average # of Memory Banks Accessed per Memory Operation per Warp=-nan

position of mrq chosen
0	0	0	0	0	0	0	0	0	0	0	0	0	0	0	0	

average position of mrq chosen = -nan
Memory Partition 0: 
Cache L2_bank_000:
MSHR contents

Cache L2_bank_001:
MSHR contents

In Dram Latency Queue (total = 0): 
DRAM[0]: 16 bks, busW=4 BL=8 CL=12, tRRD=2 tCCD=6, tRCD=12 tRAS=28 tRP=12 tRC=40
n_cmd=2852555 n_nop=2654049 n_act=35231 n_pre=35215 n_req=64294 n_rd=126404 n_write=1656 bw_util=0.08979
n_activity=1227254 dram_eff=0.2087
bk0: 8046a 2773338i bk1: 7626a 2777211i bk2: 8242a 2772698i bk3: 8070a 2774913i bk4: 7740a 2776883i bk5: 7812a 2777165i bk6: 8354a 2768240i bk7: 8154a 2769794i bk8: 7822a 2773128i bk9: 7630a 2774296i bk10: 7694a 2775226i bk11: 8012a 2771702i bk12: 7778a 2776091i bk13: 7800a 2774809i bk14: 7926a 2773883i bk15: 7698a 2775923i 
dram_util_bins: 0 0 0 0 0 0 0 0 0 0
dram_eff_bins: 0 0 0 0 0 0 0 0 0 0
mrqq: max=9 avg=0.188029
Memory Partition 1: 
Cache L2_bank_002:
MSHR contents

Cache L2_bank_003:
MSHR contents

In Dram Latency Queue (total = 0): 
DRAM[1]: 16 bks, busW=4 BL=8 CL=12, tRRD=2 tCCD=6, tRCD=12 tRAS=28 tRP=12 tRC=40
n_cmd=2852555 n_nop=2653390 n_act=35424 n_pre=35408 n_req=64424 n_rd=126690 n_write=1643 bw_util=0.08998
n_activity=1235327 dram_eff=0.2078
bk0: 7894a 2774671i bk1: 7828a 2774243i bk2: 8284a 2773456i bk3: 8068a 2773116i bk4: 7858a 2775665i bk5: 7932a 2774812i bk6: 8288a 2769276i bk7: 8130a 2769290i bk8: 7652a 2775048i bk9: 7662a 2775253i bk10: 7686a 2775201i bk11: 8030a 2772519i bk12: 7906a 2773408i bk13: 7658a 2775724i bk14: 8070a 2772945i bk15: 7744a 2775629i 
dram_util_bins: 0 0 0 0 0 0 0 0 0 0
dram_eff_bins: 0 0 0 0 0 0 0 0 0 0
mrqq: max=10 avg=0.18578
Memory Partition 2: 
Cache L2_bank_004:
MSHR contents

Cache L2_bank_005:
MSHR contents

In Dram Latency Queue (total = 0): 
DRAM[2]: 16 bks, busW=4 BL=8 CL=12, tRRD=2 tCCD=6, tRCD=12 tRAS=28 tRP=12 tRC=40
n_cmd=2852555 n_nop=2653233 n_act=35421 n_pre=35405 n_req=64526 n_rd=126814 n_write=1682 bw_util=0.09009
n_activity=1232203 dram_eff=0.2086
bk0: 7820a 2775513i bk1: 7822a 2775352i bk2: 8234a 2773643i bk3: 8066a 2775272i bk4: 7836a 2776731i bk5: 7962a 2774813i bk6: 8238a 2768282i bk7: 8056a 2770054i bk8: 7748a 2773791i bk9: 7816a 2773171i bk10: 7744a 2774233i bk11: 7904a 2772939i bk12: 8040a 2772183i bk13: 7710a 2775014i bk14: 8000a 2773247i bk15: 7818a 2774634i 
dram_util_bins: 0 0 0 0 0 0 0 0 0 0
dram_eff_bins: 0 0 0 0 0 0 0 0 0 0
mrqq: max=11 avg=0.188353
Memory Partition 3: 
Cache L2_bank_006:
MSHR contents

Cache L2_bank_007:
MSHR contents

In Dram Latency Queue (total = 0): 
DRAM[3]: 16 bks, busW=4 BL=8 CL=12, tRRD=2 tCCD=6, tRCD=12 tRAS=28 tRP=12 tRC=40
n_cmd=2852555 n_nop=2651698 n_act=35714 n_pre=35698 n_req=64975 n_rd=127808 n_write=1637 bw_util=0.09076
n_activity=1241849 dram_eff=0.2085
bk0: 7730a 2775954i bk1: 7972a 2773631i bk2: 8316a 2772667i bk3: 8006a 2774866i bk4: 7992a 2774774i bk5: 7910a 2775441i bk6: 8404a 2767538i bk7: 8344a 2767011i bk8: 7708a 2774814i bk9: 7946a 2772395i bk10: 7852a 2772270i bk11: 7924a 2772359i bk12: 8062a 2772469i bk13: 7746a 2774486i bk14: 8044a 2773844i bk15: 7852a 2774306i 
dram_util_bins: 0 0 0 0 0 0 0 0 0 0
dram_eff_bins: 0 0 0 0 0 0 0 0 0 0
mrqq: max=11 avg=0.187763
Memory Partition 4: 
Cache L2_bank_008:
MSHR contents

Cache L2_bank_009:
MSHR contents

In Dram Latency Queue (total = 0): 
DRAM[4]: 16 bks, busW=4 BL=8 CL=12, tRRD=2 tCCD=6, tRCD=12 tRAS=28 tRP=12 tRC=40
n_cmd=2852555 n_nop=2653228 n_act=35333 n_pre=35317 n_req=64609 n_rd=127006 n_write=1671 bw_util=0.09022
n_activity=1230547 dram_eff=0.2091
bk0: 7654a 2776859i bk1: 7952a 2773562i bk2: 8076a 2775367i bk3: 8066a 2775244i bk4: 7908a 2775006i bk5: 7840a 2776459i bk6: 8230a 2769028i bk7: 8430a 2767312i bk8: 7628a 2775002i bk9: 7940a 2771995i bk10: 7958a 2773601i bk11: 7762a 2774431i bk12: 7986a 2772944i bk13: 7778a 2774867i bk14: 7940a 2773748i bk15: 7858a 2774781i 
dram_util_bins: 0 0 0 0 0 0 0 0 0 0
dram_eff_bins: 0 0 0 0 0 0 0 0 0 0
mrqq: max=12 avg=0.188765
Memory Partition 5: 
Cache L2_bank_010:
MSHR contents

Cache L2_bank_011:
MSHR contents

In Dram Latency Queue (total = 0): 
DRAM[5]: 16 bks, busW=4 BL=8 CL=12, tRRD=2 tCCD=6, tRCD=12 tRAS=28 tRP=12 tRC=40
n_cmd=2852555 n_nop=2653791 n_act=35252 n_pre=35236 n_req=64385 n_rd=126652 n_write=1624 bw_util=0.08994
n_activity=1231138 dram_eff=0.2084
bk0: 7590a 2777650i bk1: 8098a 2773983i bk2: 7928a 2777114i bk3: 8080a 2774614i bk4: 7810a 2777365i bk5: 7782a 2777341i bk6: 8206a 2770073i bk7: 8520a 2765923i bk8: 7544a 2775990i bk9: 7930a 2772396i bk10: 8094a 2770785i bk11: 7738a 2774189i bk12: 7870a 2773429i bk13: 7898a 2773512i bk14: 7708a 2776127i bk15: 7856a 2775026i 
dram_util_bins: 0 0 0 0 0 0 0 0 0 0
dram_eff_bins: 0 0 0 0 0 0 0 0 0 0
mrqq: max=11 avg=0.187515

========= L2 cache stats =========
L2_cache_bank[0]: Access = 87652, Miss = 31801, Miss_rate = 0.363, Pending_hits = 414, Reservation_fails = 1467
L2_cache_bank[1]: Access = 82594, Miss = 31401, Miss_rate = 0.380, Pending_hits = 431, Reservation_fails = 1126
L2_cache_bank[2]: Access = 83916, Miss = 31819, Miss_rate = 0.379, Pending_hits = 388, Reservation_fails = 1238
L2_cache_bank[3]: Access = 91588, Miss = 31526, Miss_rate = 0.344, Pending_hits = 422, Reservation_fails = 1006
L2_cache_bank[4]: Access = 83876, Miss = 31830, Miss_rate = 0.379, Pending_hits = 406, Reservation_fails = 1237
L2_cache_bank[5]: Access = 93992, Miss = 31577, Miss_rate = 0.336, Pending_hits = 436, Reservation_fails = 1106
L2_cache_bank[6]: Access = 91871, Miss = 32054, Miss_rate = 0.349, Pending_hits = 395, Reservation_fails = 1100
L2_cache_bank[7]: Access = 91094, Miss = 31850, Miss_rate = 0.350, Pending_hits = 390, Reservation_fails = 582
L2_cache_bank[8]: Access = 83455, Miss = 31690, Miss_rate = 0.380, Pending_hits = 381, Reservation_fails = 1028
L2_cache_bank[9]: Access = 91117, Miss = 31813, Miss_rate = 0.349, Pending_hits = 401, Reservation_fails = 866
L2_cache_bank[10]: Access = 82898, Miss = 31375, Miss_rate = 0.378, Pending_hits = 388, Reservation_fails = 1157
L2_cache_bank[11]: Access = 94970, Miss = 31951, Miss_rate = 0.336, Pending_hits = 408, Reservation_fails = 1233
L2_total_cache_accesses = 1059023
L2_total_cache_misses = 380687
L2_total_cache_miss_rate = 0.3595
L2_total_cache_pending_hits = 4860
L2_total_cache_reservation_fails = 13146
L2_total_cache_breakdown:
	L2_cache_stats_breakdown[GLOBAL_ACC_R][HIT] = 566443
	L2_cache_stats_breakdown[GLOBAL_ACC_R][HIT_RESERVED] = 3121
	L2_cache_stats_breakdown[GLOBAL_ACC_R][MISS] = 379234
	L2_cache_stats_breakdown[GLOBAL_ACC_R][RESERVATION_FAIL] = 3937
	L2_cache_stats_breakdown[CONST_ACC_R][HIT] = 26
	L2_cache_stats_breakdown[CONST_ACC_R][HIT_RESERVED] = 3
	L2_cache_stats_breakdown[CONST_ACC_R][MISS] = 1
	L2_cache_stats_breakdown[CONST_ACC_R][RESERVATION_FAIL] = 100
	L2_cache_stats_breakdown[GLOBAL_ACC_W][HIT] = 106861
	L2_cache_stats_breakdown[GLOBAL_ACC_W][HIT_RESERVED] = 1700
	L2_cache_stats_breakdown[GLOBAL_ACC_W][MISS] = 1439
	L2_cache_stats_breakdown[GLOBAL_ACC_W][RESERVATION_FAIL] = 8209
	L2_cache_stats_breakdown[INST_ACC_R][HIT] = 146
	L2_cache_stats_breakdown[INST_ACC_R][HIT_RESERVED] = 36
	L2_cache_stats_breakdown[INST_ACC_R][MISS] = 13
	L2_cache_stats_breakdown[INST_ACC_R][RESERVATION_FAIL] = 900
L2_cache_data_port_util = 0.092
L2_cache_fill_port_util = 0.059

icnt_total_pkts_mem_to_simt=4855055
icnt_total_pkts_simt_to_mem=1169023
LD_mem_lat_dist  0 0 0 0 0 0 0 0 0 0 0 0 0 0 0 0 0 0 0 0 0 0 0 0 0 0 0
ST_mem_lat_dist  0 0 0 0 0 0 0 0 0 0 0 0 0 0 0 0 0 0 0 0 0 0 0 0 0 0 0
----------------------------Interconnect-DETAILS--------------------------------
Class 0:
Packet latency average = 24.6987
	minimum = 6
	maximum = 184
Network latency average = 19.8933
	minimum = 6
	maximum = 172
Slowest packet = 1057997
Flit latency average = 21.2709
	minimum = 6
	maximum = 168
Slowest flit = 4969811
Fragmentation average = 0
	minimum = 0
	maximum = 0
Injected packet rate average = 0.0382393
	minimum = 0.033742 (at node 14)
	maximum = 0.0476158 (at node 15)
Accepted packet rate average = 0.0382393
	minimum = 0.033742 (at node 14)
	maximum = 0.0476158 (at node 15)
Injected flit rate average = 0.109369
	minimum = 0.0369481 (at node 14)
	maximum = 0.222058 (at node 15)
Accepted flit rate average= 0.109369
	minimum = 0.0406933 (at node 16)
	maximum = 0.16275 (at node 1)
Injected packet length average = 2.86012
Accepted packet length average = 2.86012
Total in-flight flits = 0 (0 measured)
====== Overall Traffic Statistics ======
====== Traffic class 0 ======
Packet latency average = 25.0072 (2 samples)
	minimum = 6 (2 samples)
	maximum = 183 (2 samples)
Network latency average = 20.2184 (2 samples)
	minimum = 6 (2 samples)
	maximum = 159 (2 samples)
Flit latency average = 21.6521 (2 samples)
	minimum = 6 (2 samples)
	maximum = 155 (2 samples)
Fragmentation average = 0 (2 samples)
	minimum = 0 (2 samples)
	maximum = 0 (2 samples)
Injected packet rate average = 0.0363727 (2 samples)
	minimum = 0.0320165 (2 samples)
	maximum = 0.0450877 (2 samples)
Accepted packet rate average = 0.0363727 (2 samples)
	minimum = 0.0320165 (2 samples)
	maximum = 0.0450877 (2 samples)
Injected flit rate average = 0.103473 (2 samples)
	minimum = 0.0353925 (2 samples)
	maximum = 0.208532 (2 samples)
Accepted flit rate average = 0.103473 (2 samples)
	minimum = 0.0393981 (2 samples)
	maximum = 0.153965 (2 samples)
Injected packet size average = 2.84479 (2 samples)
Accepted packet size average = 2.84479 (2 samples)
Hops average = 1 (2 samples)
----------------------------END-of-Interconnect-DETAILS-------------------------


gpgpu_simulation_time = 0 days, 1 hrs, 45 min, 55 sec (6355 sec)
gpgpu_simulation_rate = 85335 (inst/sec)
gpgpu_simulation_rate = 340 (cycle/sec)
GPGPU-Sim: synchronize waiting for inactive GPU simulation
GPGPU-Sim API: Stream Manager State
GPGPU-Sim: detected inactive GPU simulation thread
Time spent in different stages of GPU_CUDA KERNEL:
 0.000044000000 s,  0.000001790419 % : GPU: SET DEVICE / DRIVER INIT
 0.000003000000 s,  0.000000122074 % : GPU MEM: ALO
 1.688959956169 s,  0.068726032972 % : GPU MEM: COPY IN
2455.833251953125 s, 99.931129455566 % : GPU: KERNEL
 0.003496000078 s,  0.000142256904 % : GPU MEM: COPY OUT
 0.000000000000 s,  0.000000000000 % : GPU MEM: FRE
Total time:
2457.525878906250 s
> > > > > > > > > > 
