

        *** GPGPU-Sim Simulator Version 3.2.2  [build 17315] ***


GPGPU-Sim PTX: simulation mode 0 (can change with PTX_SIM_MODE_FUNC environment variable:
               1=functional simulation only, 0=detailed performance simulator)
GPGPU-Sim: Configuration options:

-network_mode                           1 # Interconnection network mode
-inter_config_file   config_fermi_islip.icnt # Interconnection network config file
-gpgpu_ptx_use_cuobjdump                    1 # Use cuobjdump to extract ptx and sass from binaries
-gpgpu_experimental_lib_support                    0 # Try to extract code from cuda libraries [Broken because of unknown cudaGetExportTable]
-gpgpu_ptx_convert_to_ptxplus                    0 # Convert SASS (native ISA) to ptxplus and run ptxplus
-gpgpu_ptx_force_max_capability                   20 # Force maximum compute capability
-gpgpu_ptx_inst_debug_to_file                    0 # Dump executed instructions' debug information to file
-gpgpu_ptx_inst_debug_file       inst_debug.txt # Executed instructions' debug output file
-gpgpu_ptx_inst_debug_thread_uid                    1 # Thread UID for executed instructions' debug output
-gpgpu_simd_model                       1 # 1 = post-dominator
-gpgpu_shader_core_pipeline              1536:32 # shader core pipeline config, i.e., {<nthread>:<warpsize>}
-gpgpu_tex_cache:l1  4:128:24,L:R:m:N,F:128:4,128:2 # per-shader L1 texture cache  (READ-ONLY) config  {<nsets>:<bsize>:<assoc>,<rep>:<wr>:<alloc>:<wr_alloc>,<mshr>:<N>:<merge>,<mq>:<rf>}
-gpgpu_const_cache:l1 64:64:2,L:R:f:N,A:2:32,4 # per-shader L1 constant memory cache  (READ-ONLY) config  {<nsets>:<bsize>:<assoc>,<rep>:<wr>:<alloc>:<wr_alloc>,<mshr>:<N>:<merge>,<mq>} 
-gpgpu_cache:il1     4:128:4,L:R:f:N,A:2:32,4 # shader L1 instruction cache config  {<nsets>:<bsize>:<assoc>,<rep>:<wr>:<alloc>:<wr_alloc>,<mshr>:<N>:<merge>,<mq>} 
-gpgpu_cache:dl1     32:128:4,R:L:m:N,A:32:8,8 # per-shader L1 data cache config  {<nsets>:<bsize>:<assoc>,<rep>:<wr>:<alloc>:<wr_alloc>,<mshr>:<N>:<merge>,<mq> | none}
-gpgpu_cache:dl1PrefL1                 none # per-shader L1 data cache config  {<nsets>:<bsize>:<assoc>,<rep>:<wr>:<alloc>:<wr_alloc>,<mshr>:<N>:<merge>,<mq> | none}
-gpgpu_cache:dl1PreShared                 none # per-shader L1 data cache config  {<nsets>:<bsize>:<assoc>,<rep>:<wr>:<alloc>:<wr_alloc>,<mshr>:<N>:<merge>,<mq> | none}
-gmem_skip_L1D                          0 # global memory access skip L1D cache (implements -Xptxas -dlcm=cg, default=no skip)
-gpgpu_perfect_mem                      0 # enable perfect memory mode (no cache miss)
-n_regfile_gating_group                    4 # group of lanes that should be read/written together)
-gpgpu_clock_gated_reg_file                    0 # enable clock gated reg file for power calculations
-gpgpu_clock_gated_lanes                    0 # enable clock gated lanes for power calculations
-gpgpu_shader_registers                32768 # Number of registers per shader core. Limits number of concurrent CTAs. (default 8192)
-gpgpu_shader_cta                       8 # Maximum number of concurrent CTAs in shader (default 8)
-gpgpu_n_clusters                      15 # number of processing clusters
-gpgpu_n_cores_per_cluster                    1 # number of simd cores per cluster
-gpgpu_n_cluster_ejection_buffer_size                    8 # number of packets in ejection buffer
-gpgpu_n_ldst_response_buffer_size                    2 # number of response packets in ld/st unit ejection buffer
-gpgpu_shmem_size                   16384 # Size of shared memory per shader core (default 16kB)
-gpgpu_shmem_size                   49152 # Size of shared memory per shader core (default 16kB)
-gpgpu_shmem_size_PrefL1                16384 # Size of shared memory per shader core (default 16kB)
-gpgpu_shmem_size_PrefShared                16384 # Size of shared memory per shader core (default 16kB)
-gpgpu_shmem_num_banks                   32 # Number of banks in the shared memory in each shader core (default 16)
-gpgpu_shmem_limited_broadcast                    0 # Limit shared memory to do one broadcast per cycle (default on)
-gpgpu_shmem_warp_parts                    1 # Number of portions a warp is divided into for shared memory bank conflict check 
-gpgpu_warpdistro_shader                   -1 # Specify which shader core to collect the warp size distribution from
-gpgpu_warp_issue_shader                    0 # Specify which shader core to collect the warp issue distribution from
-gpgpu_local_mem_map                    1 # Mapping from local memory space address to simulated GPU physical address space (default = enabled)
-gpgpu_num_reg_banks                   16 # Number of register banks (default = 8)
-gpgpu_reg_bank_use_warp_id                    0 # Use warp ID in mapping registers to banks (default = off)
-gpgpu_operand_collector_num_units_sp                    6 # number of collector units (default = 4)
-gpgpu_operand_collector_num_units_sfu                    8 # number of collector units (default = 4)
-gpgpu_operand_collector_num_units_mem                    2 # number of collector units (default = 2)
-gpgpu_operand_collector_num_units_gen                    0 # number of collector units (default = 0)
-gpgpu_operand_collector_num_in_ports_sp                    2 # number of collector unit in ports (default = 1)
-gpgpu_operand_collector_num_in_ports_sfu                    1 # number of collector unit in ports (default = 1)
-gpgpu_operand_collector_num_in_ports_mem                    1 # number of collector unit in ports (default = 1)
-gpgpu_operand_collector_num_in_ports_gen                    0 # number of collector unit in ports (default = 0)
-gpgpu_operand_collector_num_out_ports_sp                    2 # number of collector unit in ports (default = 1)
-gpgpu_operand_collector_num_out_ports_sfu                    1 # number of collector unit in ports (default = 1)
-gpgpu_operand_collector_num_out_ports_mem                    1 # number of collector unit in ports (default = 1)
-gpgpu_operand_collector_num_out_ports_gen                    0 # number of collector unit in ports (default = 0)
-gpgpu_coalesce_arch                   13 # Coalescing arch (default = 13, anything else is off for now)
-gpgpu_num_sched_per_core                    2 # Number of warp schedulers per core
-gpgpu_max_insn_issue_per_warp                    1 # Max number of instructions that can be issued per warp in one cycle by scheduler
-gpgpu_simt_core_sim_order                    1 # Select the simulation order of cores in a cluster (0=Fix, 1=Round-Robin)
-gpgpu_pipeline_widths        2,1,1,2,1,1,2 # Pipeline widths ID_OC_SP,ID_OC_SFU,ID_OC_MEM,OC_EX_SP,OC_EX_SFU,OC_EX_MEM,EX_WB
-gpgpu_num_sp_units                     2 # Number of SP units (default=1)
-gpgpu_num_sfu_units                    1 # Number of SF units (default=1)
-gpgpu_num_mem_units                    1 # Number if ldst units (default=1) WARNING: not hooked up to anything
-gpgpu_scheduler                      lrr # Scheduler configuration: < lrr | gto | two_level_active > If two_level_active:<num_active_warps>:<inner_prioritization>:<outer_prioritization>For complete list of prioritization values see shader.h enum scheduler_prioritization_typeDefault: gto
-gpgpu_dram_scheduler                    1 # 0 = fifo, 1 = FR-FCFS (defaul)
-gpgpu_dram_partition_queues              8:8:8:8 # i2$:$2d:d2$:$2i
-l2_ideal                               0 # Use a ideal L2 cache that always hit
-gpgpu_cache:dl2     64:128:8,L:B:m:W,A:32:4,4:0,32 # unified banked L2 data cache config  {<nsets>:<bsize>:<assoc>,<rep>:<wr>:<alloc>:<wr_alloc>,<mshr>:<N>:<merge>,<mq>}
-gpgpu_cache:dl2_texture_only                    0 # L2 cache used for texture only
-gpgpu_n_mem                            6 # number of memory modules (e.g. memory controllers) in gpu
-gpgpu_n_sub_partition_per_mchannel                    2 # number of memory subpartition in each memory module
-gpgpu_n_mem_per_ctrlr                    2 # number of memory chips per memory controller
-gpgpu_memlatency_stat                   14 # track and display latency statistics 0x2 enables MC, 0x4 enables queue logs
-gpgpu_frfcfs_dram_sched_queue_size                   16 # 0 = unlimited (default); # entries per chip
-gpgpu_dram_return_queue_size                  116 # 0 = unlimited (default); # entries per chip
-gpgpu_dram_buswidth                    4 # default = 4 bytes (8 bytes per cycle at DDR)
-gpgpu_dram_burst_length                    8 # Burst length of each DRAM request (default = 4 data bus cycle)
-dram_data_command_freq_ratio                    4 # Frequency ratio between DRAM data bus and command bus (default = 2 times, i.e. DDR)
-gpgpu_dram_timing_opt nbk=16:CCD=2:RRD=6:RCD=12:RAS=28:RP=12:RC=40: CL=12:WL=4:CDLR=5:WR=12:nbkgrp=4:CCDL=3:RTPL=2 # DRAM timing parameters = {nbk:tCCD:tRRD:tRCD:tRAS:tRP:tRC:CL:WL:tCDLR:tWR:nbkgrp:tCCDL:tRTPL}
-rop_latency                          120 # ROP queue latency (default 85)
-dram_latency                         100 # DRAM latency (default 30)
-gpgpu_mem_addr_mapping dramid@8;00000000.00000000.00000000.00000000.0000RRRR.RRRRRRRR.BBBCCCCB.CCSSSSSS # mapping memory address to dram model {dramid@<start bit>;<memory address map>}
-gpgpu_mem_addr_test                    0 # run sweep test to check address mapping for aliased address
-gpgpu_mem_address_mask                    1 # 0 = old addressing mask, 1 = new addressing mask, 2 = new add. mask + flipped bank sel and chip sel bits
-gpuwattch_xml_file  gpuwattch_gtx480.xml # GPUWattch XML file
-power_simulation_enabled                    1 # Turn on power simulator (1=On, 0=Off)
-power_per_cycle_dump                    0 # Dump detailed power output each cycle
-power_trace_enabled                    0 # produce a file for the power trace (1=On, 0=Off)
-power_trace_zlevel                     6 # Compression level of the power trace output log (0=no comp, 9=highest)
-steady_power_levels_enabled                    0 # produce a file for the steady power levels (1=On, 0=Off)
-steady_state_definition                  8:4 # allowed deviation:number of samples
-gpgpu_max_cycle                        0 # terminates gpu simulation early (0 = no limit)
-gpgpu_max_insn                         0 # terminates gpu simulation early (0 = no limit)
-gpgpu_max_cta                          0 # terminates gpu simulation early (0 = no limit)
-gpgpu_runtime_stat                   500 # display runtime statistics such as dram utilization {<freq>:<flag>}
-liveness_message_freq                    1 # Minimum number of seconds between simulation liveness messages (0 = always print)
-gpgpu_flush_l1_cache                    0 # Flush L1 cache at the end of each kernel call
-gpgpu_flush_l2_cache                    0 # Flush L2 cache at the end of each kernel call
-gpgpu_deadlock_detect                    1 # Stop the simulation at deadlock (1=on (default), 0=off)
-gpgpu_ptx_instruction_classification                    0 # if enabled will classify ptx instruction types per kernel (Max 255 kernels now)
-gpgpu_ptx_sim_mode                     0 # Select between Performance (default) or Functional simulation (1)
-gpgpu_clock_domains 700.0:700.0:700.0:924.0 # Clock Domain Frequencies in MhZ {<Core Clock>:<ICNT Clock>:<L2 Clock>:<DRAM Clock>}
-gpgpu_max_concurrent_kernel                    8 # maximum kernels that can run concurrently on GPU
-gpgpu_cflog_interval                    0 # Interval between each snapshot in control flow logger
-visualizer_enabled                     0 # Turn on visualizer output (1=On, 0=Off)
-visualizer_outputfile                 NULL # Specifies the output log file for visualizer
-visualizer_zlevel                      6 # Compression level of the visualizer output log (0=no comp, 9=highest)
-trace_enabled                          0 # Turn on traces
-trace_components                    none # comma seperated list of traces to enable. Complete list found in trace_streams.tup. Default none
-trace_sampling_core                    0 # The core which is printed using CORE_DPRINTF. Default 0
-trace_sampling_memory_partition                   -1 # The memory partition which is printed using MEMPART_DPRINTF. Default -1 (i.e. all)
-enable_ptx_file_line_stats                    1 # Turn on PTX source line statistic profiling. (1 = On)
-ptx_line_stats_filename gpgpu_inst_stats.txt # Output file for PTX source line statistics.
-save_embedded_ptx                      0 # saves ptx files embedded in binary as <n>.ptx
-keep                                   0 # keep intermediate files created by GPGPU-Sim when interfacing with external programs
-gpgpu_ptx_save_converted_ptxplus                    0 # Saved converted ptxplus to a file
-ptx_opcode_latency_int         4,13,4,5,145 # Opcode latencies for integers <ADD,MAX,MUL,MAD,DIV>Default 1,1,19,25,145
-ptx_opcode_latency_fp          4,13,4,5,39 # Opcode latencies for single precision floating points <ADD,MAX,MUL,MAD,DIV>Default 1,1,1,1,30
-ptx_opcode_latency_dp         8,19,8,8,330 # Opcode latencies for double precision floating points <ADD,MAX,MUL,MAD,DIV>Default 8,8,8,8,335
-ptx_opcode_initiation_int            1,2,2,1,8 # Opcode initiation intervals for integers <ADD,MAX,MUL,MAD,DIV>Default 1,1,4,4,32
-ptx_opcode_initiation_fp            1,2,1,1,4 # Opcode initiation intervals for single precision floating points <ADD,MAX,MUL,MAD,DIV>Default 1,1,1,1,5
-ptx_opcode_initiation_dp         8,16,8,8,130 # Opcode initiation intervals for double precision floating points <ADD,MAX,MUL,MAD,DIV>Default 8,8,8,8,130
DRAM Timing Options:
nbk                                    16 # number of banks
CCD                                     2 # column to column delay
RRD                                     6 # minimal delay between activation of rows in different banks
RCD                                    12 # row to column delay
RAS                                    28 # time needed to activate row
RP                                     12 # time needed to precharge (deactivate) row
RC                                     40 # row cycle time
CDLR                                    5 # switching from write to read (changes tWTR)
WR                                     12 # last data-in to row precharge
CL                                     12 # CAS latency
WL                                      4 # Write latency
nbkgrp                                  4 # number of bank groups
CCDL                                    3 # column to column delay between accesses to different bank groups
RTPL                                    2 # read to precharge delay between accesses to different bank groups
Total number of memory sub partition = 12
addr_dec_mask[CHIP]  = 0000000000000000 	high:64 low:0
addr_dec_mask[BK]    = 000000000000e100 	high:16 low:8
addr_dec_mask[ROW]   = 000000000fff0000 	high:28 low:16
addr_dec_mask[COL]   = 0000000000001eff 	high:13 low:0
addr_dec_mask[BURST] = 000000000000003f 	high:6 low:0
sub_partition_id_mask = 0000000000000100
GPGPU-Sim uArch: clock freqs: 700000000.000000:700000000.000000:700000000.000000:924000000.000000
GPGPU-Sim uArch: clock periods: 0.00000000142857142857:0.00000000142857142857:0.00000000142857142857:0.00000000108225108225
*** Initializing Memory Statistics ***
GPGPU-Sim uArch: interconnect node map (shaderID+MemID to icntID)
GPGPU-Sim uArch: Memory nodes ID start from index: 15
GPGPU-Sim uArch:    0   1   2   3   4
GPGPU-Sim uArch:    5   6   7   8   9
GPGPU-Sim uArch:   10  11  12  13  14
GPGPU-Sim uArch:   15  16  17  18  19
GPGPU-Sim uArch:   20  21  22  23  24
GPGPU-Sim uArch:   25  26
GPGPU-Sim uArch: interconnect node reverse map (icntID to shaderID+MemID)
GPGPU-Sim uArch: Memory nodes start from ID: 15
GPGPU-Sim uArch:    0   1   2   3   4
GPGPU-Sim uArch:    5   6   7   8   9
GPGPU-Sim uArch:   10  11  12  13  14
GPGPU-Sim uArch:   15  16  17  18  19
GPGPU-Sim uArch:   20  21  22  23  24
GPGPU-Sim uArch:   25  26
5dfc00447550946b86c573f0833154d9  /home/xlxie/workdir_Aug1st_2014/bm/rodinia_2.4_sim_1.0/cuda/b+tree.tmp.6/b+tree.out
GPGPU-Sim uArch: performance model initialization complete.
GPGPU-Sim PTX: __cudaRegisterFatBinary, fat_cubin_handle = 1, filename=./kernel/kernel_gpu_cuda_wrapper.cu
self exe links to: /home/xlxie/workdir_Aug1st_2014/bm/rodinia_2.4_sim_1.0/cuda/b+tree.tmp.6/b+tree.out
Running md5sum using "md5sum /home/xlxie/workdir_Aug1st_2014/bm/rodinia_2.4_sim_1.0/cuda/b+tree.tmp.6/b+tree.out "
Running cuobjdump using "$CUDA_INSTALL_PATH/bin/cuobjdump -ptx -elf -sass /home/xlxie/workdir_Aug1st_2014/bm/rodinia_2.4_sim_1.0/cuda/b+tree.tmp.6/b+tree.out > _cuobjdump_complete_output_EUdx7q"
Parsing file _cuobjdump_complete_output_EUdx7q
######### cuobjdump parser ########
## Adding new section PTX
Adding ptx filename: _cuobjdump_1.ptx
Adding arch: sm_20
Adding identifier: ./kernel/kernel_gpu_cuda_wrapper.cu
## Adding new section PTX
Adding ptx filename: _cuobjdump_2.ptx
Adding arch: sm_20
Adding identifier: ./kernel/kernel_gpu_cuda_wrapper_2.cu
## Adding new section PTX
Adding ptx filename: _cuobjdump_3.ptx
Adding arch: sm_20
Adding identifier: ./util/cuda/cuda.cu
Done parsing!!!
GPGPU-Sim PTX: __cudaRegisterFunction findK : hostFun 0x0x405e20, fat_cubin_handle = 1
GPGPU-Sim PTX: instruction assembly for function 'findK'...   done.
GPGPU-Sim PTX: finding reconvergence points for 'findK'...
GPGPU-Sim PTX: Finding dominators for 'findK'...
GPGPU-Sim PTX: Finding immediate dominators for 'findK'...
GPGPU-Sim PTX: Finding postdominators for 'findK'...
GPGPU-Sim PTX: Finding immediate postdominators for 'findK'...
GPGPU-Sim PTX: pre-decoding instructions for 'findK'...
GPGPU-Sim PTX: reconvergence points for findK...
GPGPU-Sim PTX:  1 (potential) branch divergence @  PC=0x038 (_1.ptx:74) @%p1 bra $Lt_0_7682;
GPGPU-Sim PTX:    immediate post dominator      @  PC=0x1e8 (_1.ptx:141) ld.global.u64 %rd32, [%rd12+0];
GPGPU-Sim PTX:  2 (potential) branch divergence @  PC=0x0d0 (_1.ptx:96) @%p3 bra $Lt_0_7938;
GPGPU-Sim PTX:    immediate post dominator      @  PC=0x150 (_1.ptx:116) bar.sync 0;
GPGPU-Sim PTX:  3 (potential) branch divergence @  PC=0x0e8 (_1.ptx:99) @%p4 bra $Lt_0_7938;
GPGPU-Sim PTX:    immediate post dominator      @  PC=0x150 (_1.ptx:116) bar.sync 0;
GPGPU-Sim PTX:  4 (potential) branch divergence @  PC=0x140 (_1.ptx:110) @%p5 bra $Lt_0_7938;
GPGPU-Sim PTX:    immediate post dominator      @  PC=0x150 (_1.ptx:116) bar.sync 0;
GPGPU-Sim PTX:  5 (potential) branch divergence @  PC=0x158 (_1.ptx:117) @!%p2 bra $Lt_0_6402;
GPGPU-Sim PTX:    immediate post dominator      @  PC=0x180 (_1.ptx:125) bar.sync 0;
GPGPU-Sim PTX:  6 (potential) branch divergence @  PC=0x198 (_1.ptx:129) @%p6 bra $Lt_0_5634;
GPGPU-Sim PTX:    immediate post dominator      @  PC=0x1a0 (_1.ptx:130) bra.uni $Lt_0_5122;
GPGPU-Sim PTX:  7 (potential) branch divergence @  PC=0x1a0 (_1.ptx:130) bra.uni $Lt_0_5122;
GPGPU-Sim PTX:    immediate post dominator      @  PC=0x1e8 (_1.ptx:141) ld.global.u64 %rd32, [%rd12+0];
GPGPU-Sim PTX:  8 (potential) branch divergence @  PC=0x220 (_1.ptx:148) @%p7 bra $Lt_0_7170;
GPGPU-Sim PTX:    immediate post dominator      @  PC=0x270 (_1.ptx:161) exit;
GPGPU-Sim PTX: ... end of reconvergence points for findK
GPGPU-Sim PTX: ... done pre-decoding instructions for 'findK'.
GPGPU-Sim PTX: finished parsing EMBEDDED .ptx file _1.ptx
Adding _cuobjdump_1.ptx with cubin handle 1
GPGPU-Sim PTX: extracting embedded .ptx to temporary file "_ptx_DxGnky"
Running: cat _ptx_DxGnky | sed 's/.version 1.5/.version 1.4/' | sed 's/, texmode_independent//' | sed 's/\(\.extern \.const\[1\] .b8 \w\+\)\[\]/\1\[1\]/' | sed 's/const\[.\]/const\[0\]/g' > _ptx2_zK3exF
GPGPU-Sim PTX: generating ptxinfo using "$CUDA_INSTALL_PATH/bin/ptxas --gpu-name=sm_20 -v _ptx2_zK3exF --output-file  /dev/null 2> _ptx_DxGnkyinfo"
GPGPU-Sim PTX: Kernel 'findK' : regs=18, lmem=0, smem=0, cmem=96
GPGPU-Sim PTX: removing ptxinfo using "rm -f _ptx_DxGnky _ptx2_zK3exF _ptx_DxGnkyinfo"
GPGPU-Sim PTX: loading globals with explicit initializers... 
GPGPU-Sim PTX: finished loading globals (0 bytes total).
GPGPU-Sim PTX: loading constants with explicit initializers...  done.
GPGPU-Sim PTX: __cudaRegisterFatBinary, fat_cubin_handle = 2, filename=./kernel/kernel_gpu_cuda_wrapper_2.cu
GPGPU-Sim PTX: __cudaRegisterFunction findRangeK : hostFun 0x0x406530, fat_cubin_handle = 2
GPGPU-Sim PTX: instruction assembly for function 'findRangeK'...   done.
GPGPU-Sim PTX: finding reconvergence points for 'findRangeK'...
GPGPU-Sim PTX: Finding dominators for 'findRangeK'...
GPGPU-Sim PTX: Finding immediate dominators for 'findRangeK'...
GPGPU-Sim PTX: Finding postdominators for 'findRangeK'...
GPGPU-Sim PTX: Finding immediate postdominators for 'findRangeK'...
GPGPU-Sim PTX: pre-decoding instructions for 'findRangeK'...
GPGPU-Sim PTX: reconvergence points for findRangeK...
GPGPU-Sim PTX:  1 (potential) branch divergence @  PC=0x2c0 (_2.ptx:79) @%p1 bra $Lt_0_11778;
GPGPU-Sim PTX:    immediate post dominator      @  PC=0x528 (_2.ptx:174) ld.global.u64 %rd43, [%rd15+0];
GPGPU-Sim PTX:  2 (potential) branch divergence @  PC=0x368 (_2.ptx:103) @%p3 bra $Lt_0_12034;
GPGPU-Sim PTX:    immediate post dominator      @  PC=0x3c8 (_2.ptx:119) ld.global.s32 %r8, [%rd14+0];
GPGPU-Sim PTX:  3 (potential) branch divergence @  PC=0x380 (_2.ptx:106) @%p4 bra $Lt_0_12034;
GPGPU-Sim PTX:    immediate post dominator      @  PC=0x3c8 (_2.ptx:119) ld.global.s32 %r8, [%rd14+0];
GPGPU-Sim PTX:  4 (potential) branch divergence @  PC=0x3a8 (_2.ptx:111) @%p5 bra $Lt_0_12034;
GPGPU-Sim PTX:    immediate post dominator      @  PC=0x3c8 (_2.ptx:119) ld.global.s32 %r8, [%rd14+0];
GPGPU-Sim PTX:  5 (potential) branch divergence @  PC=0x400 (_2.ptx:126) @%p6 bra $Lt_0_12546;
GPGPU-Sim PTX:    immediate post dominator      @  PC=0x460 (_2.ptx:142) bar.sync 0;
GPGPU-Sim PTX:  6 (potential) branch divergence @  PC=0x418 (_2.ptx:129) @%p7 bra $Lt_0_12546;
GPGPU-Sim PTX:    immediate post dominator      @  PC=0x460 (_2.ptx:142) bar.sync 0;
GPGPU-Sim PTX:  7 (potential) branch divergence @  PC=0x440 (_2.ptx:134) @%p8 bra $Lt_0_12546;
GPGPU-Sim PTX:    immediate post dominator      @  PC=0x460 (_2.ptx:142) bar.sync 0;
GPGPU-Sim PTX:  8 (potential) branch divergence @  PC=0x468 (_2.ptx:143) @!%p2 bra $Lt_0_9986;
GPGPU-Sim PTX:    immediate post dominator      @  PC=0x4b0 (_2.ptx:156) bar.sync 0;
GPGPU-Sim PTX:  9 (potential) branch divergence @  PC=0x4c8 (_2.ptx:160) @%p9 bra $Lt_0_8706;
GPGPU-Sim PTX:    immediate post dominator      @  PC=0x4d0 (_2.ptx:161) bra.uni $Lt_0_8194;
GPGPU-Sim PTX: 10 (potential) branch divergence @  PC=0x4d0 (_2.ptx:161) bra.uni $Lt_0_8194;
GPGPU-Sim PTX:    immediate post dominator      @  PC=0x528 (_2.ptx:174) ld.global.u64 %rd43, [%rd15+0];
GPGPU-Sim PTX: 11 (potential) branch divergence @  PC=0x560 (_2.ptx:181) @%p10 bra $Lt_0_10754;
GPGPU-Sim PTX:    immediate post dominator      @  PC=0x588 (_2.ptx:189) bar.sync 0;
GPGPU-Sim PTX: 12 (potential) branch divergence @  PC=0x5c8 (_2.ptx:197) @%p11 bra $Lt_0_11266;
GPGPU-Sim PTX:    immediate post dominator      @  PC=0x618 (_2.ptx:210) exit;
GPGPU-Sim PTX: ... end of reconvergence points for findRangeK
GPGPU-Sim PTX: ... done pre-decoding instructions for 'findRangeK'.
GPGPU-Sim PTX: finished parsing EMBEDDED .ptx file _2.ptx
Adding _cuobjdump_2.ptx with cubin handle 2
GPGPU-Sim PTX: extracting embedded .ptx to temporary file "_ptx_zpou0M"
Running: cat _ptx_zpou0M | sed 's/.version 1.5/.version 1.4/' | sed 's/, texmode_independent//' | sed 's/\(\.extern \.const\[1\] .b8 \w\+\)\[\]/\1\[1\]/' | sed 's/const\[.\]/const\[0\]/g' > _ptx2_ancLtU
GPGPU-Sim PTX: generating ptxinfo using "$CUDA_INSTALL_PATH/bin/ptxas --gpu-name=sm_20 -v _ptx2_ancLtU --output-file  /dev/null 2> _ptx_zpou0Minfo"
GPGPU-Sim PTX: Kernel 'findRangeK' : regs=23, lmem=0, smem=0, cmem=120
GPGPU-Sim PTX: removing ptxinfo using "rm -f _ptx_zpou0M _ptx2_ancLtU _ptx_zpou0Minfo"
GPGPU-Sim PTX: loading globals with explicit initializers... 
GPGPU-Sim PTX: finished loading globals (0 bytes total).
GPGPU-Sim PTX: loading constants with explicit initializers...  done.
GPGPU-Sim PTX: __cudaRegisterFatBinary, fat_cubin_handle = 3, filename=./util/cuda/cuda.cu
Selecting device 0
Input File: ../../data/b+tree/mil.txt 
Command File: ../../data/b+tree/command.txt 
Command Buffer: 
j 6000 3000
k 10000


Getting input from file ../../data/b+tree/mil.txt...
Transforming data to a GPU suitable structure...
Tree transformation took 0.188259
Waiting for command
> 
******command: j count=6000, rSize=6000 
knodes_elem=3953, knodes_unit_mem=4084, knodes_mem=16144052
GPGPU-Sim: synchronize waiting for inactive GPU simulation
GPGPU-Sim API: Stream Manager State
GPGPU-Sim: detected inactive GPU simulation thread
# of blocks = 6000, # of threads/block = 508 (ensure that device can handle)

GPGPU-Sim PTX: cudaLaunch for 0x0x406530 (mode=performance simulation) on stream 0
GPGPU-Sim PTX: pushing kernel 'findRangeK' to stream 0, gridDim= (6000,1,1) blockDim = (508,1,1) 
kernel 'findRangeK' transfer to GPU hardware scheduler
GPGPU-Sim uArch: Shader 1 bind to kernel 1 'findRangeK'
GPGPU-Sim uArch: CTA/core = 2, limited by: regs
GPGPU-Sim uArch: core:  1, cta: 0 initialized @(1,0)
GPGPU-Sim uArch: Shader 2 bind to kernel 1 'findRangeK'
GPGPU-Sim uArch: core:  2, cta: 0 initialized @(1,0)
GPGPU-Sim uArch: Shader 3 bind to kernel 1 'findRangeK'
GPGPU-Sim uArch: core:  3, cta: 0 initialized @(1,0)
GPGPU-Sim uArch: Shader 4 bind to kernel 1 'findRangeK'
GPGPU-Sim uArch: core:  4, cta: 0 initialized @(1,0)
GPGPU-Sim uArch: Shader 5 bind to kernel 1 'findRangeK'
GPGPU-Sim uArch: core:  5, cta: 0 initialized @(1,0)
GPGPU-Sim uArch: Shader 6 bind to kernel 1 'findRangeK'
GPGPU-Sim uArch: core:  6, cta: 0 initialized @(1,0)
GPGPU-Sim uArch: Shader 7 bind to kernel 1 'findRangeK'
GPGPU-Sim uArch: core:  7, cta: 0 initialized @(1,0)
GPGPU-Sim uArch: Shader 8 bind to kernel 1 'findRangeK'
GPGPU-Sim uArch: core:  8, cta: 0 initialized @(1,0)
GPGPU-Sim uArch: Shader 9 bind to kernel 1 'findRangeK'
GPGPU-Sim uArch: core:  9, cta: 0 initialized @(1,0)
GPGPU-Sim uArch: Shader 10 bind to kernel 1 'findRangeK'
GPGPU-Sim uArch: core: 10, cta: 0 initialized @(1,0)
GPGPU-Sim uArch: Shader 11 bind to kernel 1 'findRangeK'
GPGPU-Sim uArch: core: 11, cta: 0 initialized @(1,0)
GPGPU-Sim uArch: Shader 12 bind to kernel 1 'findRangeK'
GPGPU-Sim uArch: core: 12, cta: 0 initialized @(1,0)
GPGPU-Sim uArch: Shader 13 bind to kernel 1 'findRangeK'
GPGPU-Sim uArch: core: 13, cta: 0 initialized @(1,0)
GPGPU-Sim uArch: Shader 14 bind to kernel 1 'findRangeK'
GPGPU-Sim uArch: core: 14, cta: 0 initialized @(1,0)
GPGPU-Sim uArch: Shader 0 bind to kernel 1 'findRangeK'
GPGPU-Sim uArch: core:  0, cta: 0 initialized @(1,0)
GPGPU-Sim uArch: core:  1, cta: 1 initialized @(2,0)
GPGPU-Sim uArch: core:  2, cta: 1 initialized @(2,0)
GPGPU-Sim uArch: core:  3, cta: 1 initialized @(2,0)
GPGPU-Sim uArch: core:  4, cta: 1 initialized @(2,0)
GPGPU-Sim uArch: core:  5, cta: 1 initialized @(2,0)
GPGPU-Sim uArch: core:  6, cta: 1 initialized @(2,0)
GPGPU-Sim uArch: core:  7, cta: 1 initialized @(2,0)
GPGPU-Sim uArch: core:  8, cta: 1 initialized @(2,0)
GPGPU-Sim uArch: core:  9, cta: 1 initialized @(2,0)
GPGPU-Sim uArch: core: 10, cta: 1 initialized @(2,0)
GPGPU-Sim uArch: core: 11, cta: 1 initialized @(2,0)
GPGPU-Sim uArch: core: 12, cta: 1 initialized @(2,0)
GPGPU-Sim uArch: core: 13, cta: 1 initialized @(2,0)
GPGPU-Sim uArch: core: 14, cta: 1 initialized @(2,0)
GPGPU-Sim uArch: core:  0, cta: 1 initialized @(2,0)
GPGPU-Sim uArch: cycles simulated: 500  inst.: 0 (ipc= 0.0) sim_rate=0 (inst/sec) elapsed = 0:0:00:06 / Fri Aug 15 13:39:33 2014
GPGPU-Sim PTX: 100000 instructions simulated : ctaid=(19,0,0) tid=(91,0,0)
GPGPU-Sim PTX: 200000 instructions simulated : ctaid=(8,0,0) tid=(7,0,0)
GPGPU-Sim uArch: cycles simulated: 1000  inst.: 255476 (ipc=255.5) sim_rate=36496 (inst/sec) elapsed = 0:0:00:07 / Fri Aug 15 13:39:34 2014
GPGPU-Sim PTX: 300000 instructions simulated : ctaid=(8,0,0) tid=(411,0,0)
GPGPU-Sim PTX: 400000 instructions simulated : ctaid=(22,0,0) tid=(63,0,0)
GPGPU-Sim uArch: cycles simulated: 2000  inst.: 426874 (ipc=213.4) sim_rate=53359 (inst/sec) elapsed = 0:0:00:08 / Fri Aug 15 13:39:35 2014
GPGPU-Sim PTX: 500000 instructions simulated : ctaid=(29,0,0) tid=(352,0,0)
GPGPU-Sim uArch: cycles simulated: 2500  inst.: 529708 (ipc=211.9) sim_rate=58856 (inst/sec) elapsed = 0:0:00:09 / Fri Aug 15 13:39:36 2014
GPGPU-Sim PTX: 600000 instructions simulated : ctaid=(6,0,0) tid=(59,0,0)
GPGPU-Sim uArch: cycles simulated: 3000  inst.: 611006 (ipc=203.7) sim_rate=61100 (inst/sec) elapsed = 0:0:00:10 / Fri Aug 15 13:39:37 2014
GPGPU-Sim PTX: 700000 instructions simulated : ctaid=(26,0,0) tid=(265,0,0)
GPGPU-Sim uArch: cycles simulated: 4000  inst.: 760414 (ipc=190.1) sim_rate=69128 (inst/sec) elapsed = 0:0:00:11 / Fri Aug 15 13:39:38 2014
GPGPU-Sim PTX: 800000 instructions simulated : ctaid=(22,0,0) tid=(263,0,0)
GPGPU-Sim uArch: cycles simulated: 4500  inst.: 854852 (ipc=190.0) sim_rate=71237 (inst/sec) elapsed = 0:0:00:12 / Fri Aug 15 13:39:39 2014
GPGPU-Sim PTX: 900000 instructions simulated : ctaid=(4,0,0) tid=(377,0,0)
GPGPU-Sim uArch: cycles simulated: 5000  inst.: 964620 (ipc=192.9) sim_rate=74201 (inst/sec) elapsed = 0:0:00:13 / Fri Aug 15 13:39:40 2014
GPGPU-Sim PTX: 1000000 instructions simulated : ctaid=(4,0,0) tid=(273,0,0)
GPGPU-Sim PTX: 1100000 instructions simulated : ctaid=(9,0,0) tid=(259,0,0)
GPGPU-Sim uArch: cycles simulated: 6000  inst.: 1104371 (ipc=184.1) sim_rate=78883 (inst/sec) elapsed = 0:0:00:14 / Fri Aug 15 13:39:41 2014
GPGPU-Sim uArch: cycles simulated: 6500  inst.: 1151805 (ipc=177.2) sim_rate=76787 (inst/sec) elapsed = 0:0:00:15 / Fri Aug 15 13:39:42 2014
GPGPU-Sim PTX: 1200000 instructions simulated : ctaid=(0,0,0) tid=(392,0,0)
GPGPU-Sim uArch: cycles simulated: 7000  inst.: 1231690 (ipc=176.0) sim_rate=76980 (inst/sec) elapsed = 0:0:00:16 / Fri Aug 15 13:39:43 2014
GPGPU-Sim PTX: 1300000 instructions simulated : ctaid=(7,0,0) tid=(376,0,0)
GPGPU-Sim uArch: cycles simulated: 7500  inst.: 1276763 (ipc=170.2) sim_rate=75103 (inst/sec) elapsed = 0:0:00:17 / Fri Aug 15 13:39:44 2014
GPGPU-Sim uArch: Shader 1 finished CTA #0 (7634,0), 1 CTAs running
GPGPU-Sim uArch: core:  1, cta: 0 initialized @(7635,0)
GPGPU-Sim uArch: Shader 6 finished CTA #0 (7706,0), 1 CTAs running
GPGPU-Sim uArch: core:  6, cta: 0 initialized @(7707,0)
GPGPU-Sim uArch: Shader 12 finished CTA #1 (7714,0), 1 CTAs running
GPGPU-Sim uArch: core: 12, cta: 1 initialized @(7715,0)
GPGPU-Sim uArch: Shader 8 finished CTA #1 (7722,0), 1 CTAs running
GPGPU-Sim uArch: core:  8, cta: 1 initialized @(7723,0)
GPGPU-Sim uArch: Shader 10 finished CTA #0 (7725,0), 1 CTAs running
GPGPU-Sim uArch: core: 10, cta: 0 initialized @(7726,0)
GPGPU-Sim uArch: Shader 2 finished CTA #1 (7732,0), 1 CTAs running
GPGPU-Sim uArch: core:  2, cta: 1 initialized @(7733,0)
GPGPU-Sim uArch: Shader 3 finished CTA #0 (7739,0), 1 CTAs running
GPGPU-Sim uArch: Shader 8 finished CTA #0 (7739,0), 1 CTAs running
GPGPU-Sim uArch: core:  3, cta: 0 initialized @(7740,0)
GPGPU-Sim uArch: core:  8, cta: 0 initialized @(7740,0)
GPGPU-Sim uArch: Shader 1 finished CTA #1 (7742,0), 1 CTAs running
GPGPU-Sim uArch: core:  1, cta: 1 initialized @(7743,0)
GPGPU-Sim uArch: Shader 12 finished CTA #0 (7750,0), 1 CTAs running
GPGPU-Sim uArch: core: 12, cta: 0 initialized @(7751,0)
GPGPU-Sim uArch: Shader 4 finished CTA #1 (7752,0), 1 CTAs running
GPGPU-Sim uArch: core:  4, cta: 1 initialized @(7753,0)
GPGPU-Sim uArch: Shader 10 finished CTA #1 (7760,0), 1 CTAs running
GPGPU-Sim uArch: core: 10, cta: 1 initialized @(7761,0)
GPGPU-Sim uArch: Shader 11 finished CTA #1 (7781,0), 1 CTAs running
GPGPU-Sim uArch: core: 11, cta: 1 initialized @(7782,0)
GPGPU-Sim uArch: Shader 9 finished CTA #1 (7787,0), 1 CTAs running
GPGPU-Sim uArch: core:  9, cta: 1 initialized @(7788,0)
GPGPU-Sim uArch: Shader 13 finished CTA #1 (7790,0), 1 CTAs running
GPGPU-Sim uArch: core: 13, cta: 1 initialized @(7791,0)
GPGPU-Sim uArch: Shader 3 finished CTA #1 (7798,0), 1 CTAs running
GPGPU-Sim uArch: core:  3, cta: 1 initialized @(7799,0)
GPGPU-Sim uArch: Shader 9 finished CTA #0 (7804,0), 1 CTAs running
GPGPU-Sim uArch: core:  9, cta: 0 initialized @(7805,0)
GPGPU-Sim uArch: Shader 7 finished CTA #1 (7807,0), 1 CTAs running
GPGPU-Sim uArch: core:  7, cta: 1 initialized @(7808,0)
GPGPU-Sim uArch: Shader 2 finished CTA #0 (7808,0), 1 CTAs running
GPGPU-Sim uArch: core:  2, cta: 0 initialized @(7809,0)
GPGPU-Sim uArch: Shader 0 finished CTA #0 (7817,0), 1 CTAs running
GPGPU-Sim uArch: core:  0, cta: 0 initialized @(7818,0)
GPGPU-Sim uArch: Shader 4 finished CTA #0 (7828,0), 1 CTAs running
GPGPU-Sim uArch: core:  4, cta: 0 initialized @(7829,0)
GPGPU-Sim uArch: Shader 11 finished CTA #0 (7847,0), 1 CTAs running
GPGPU-Sim uArch: core: 11, cta: 0 initialized @(7848,0)
GPGPU-Sim PTX: 1400000 instructions simulated : ctaid=(37,0,0) tid=(8,0,0)
GPGPU-Sim uArch: Shader 14 finished CTA #1 (7861,0), 1 CTAs running
GPGPU-Sim uArch: core: 14, cta: 1 initialized @(7862,0)
GPGPU-Sim uArch: Shader 14 finished CTA #0 (7927,0), 1 CTAs running
GPGPU-Sim uArch: core: 14, cta: 0 initialized @(7928,0)
GPGPU-Sim uArch: Shader 7 finished CTA #0 (7930,0), 1 CTAs running
GPGPU-Sim uArch: core:  7, cta: 0 initialized @(7931,0)
GPGPU-Sim uArch: Shader 5 finished CTA #1 (7933,0), 1 CTAs running
GPGPU-Sim uArch: core:  5, cta: 1 initialized @(7934,0)
GPGPU-Sim uArch: Shader 5 finished CTA #0 (7970,0), 1 CTAs running
GPGPU-Sim uArch: core:  5, cta: 0 initialized @(7971,0)
GPGPU-Sim PTX: 1500000 instructions simulated : ctaid=(41,0,0) tid=(425,0,0)
GPGPU-Sim uArch: Shader 13 finished CTA #0 (7974,0), 1 CTAs running
GPGPU-Sim uArch: core: 13, cta: 0 initialized @(7975,0)
GPGPU-Sim uArch: Shader 6 finished CTA #1 (7997,0), 1 CTAs running
GPGPU-Sim uArch: core:  6, cta: 1 initialized @(7998,0)
GPGPU-Sim uArch: cycles simulated: 8000  inst.: 1466474 (ipc=183.3) sim_rate=81470 (inst/sec) elapsed = 0:0:00:18 / Fri Aug 15 13:39:45 2014
GPGPU-Sim uArch: Shader 0 finished CTA #1 (8032,0), 1 CTAs running
GPGPU-Sim uArch: core:  0, cta: 1 initialized @(8033,0)
GPGPU-Sim PTX: 1600000 instructions simulated : ctaid=(48,0,0) tid=(109,0,0)
GPGPU-Sim PTX: 1700000 instructions simulated : ctaid=(41,0,0) tid=(95,0,0)
GPGPU-Sim uArch: cycles simulated: 8500  inst.: 1714729 (ipc=201.7) sim_rate=85736 (inst/sec) elapsed = 0:0:00:20 / Fri Aug 15 13:39:47 2014
GPGPU-Sim PTX: 1800000 instructions simulated : ctaid=(37,0,0) tid=(111,0,0)
GPGPU-Sim PTX: 1900000 instructions simulated : ctaid=(30,0,0) tid=(0,0,0)
GPGPU-Sim uArch: cycles simulated: 9000  inst.: 1907369 (ipc=211.9) sim_rate=90827 (inst/sec) elapsed = 0:0:00:21 / Fri Aug 15 13:39:48 2014
GPGPU-Sim PTX: 2000000 instructions simulated : ctaid=(32,0,0) tid=(506,0,0)
GPGPU-Sim uArch: cycles simulated: 9500  inst.: 1949697 (ipc=205.2) sim_rate=88622 (inst/sec) elapsed = 0:0:00:22 / Fri Aug 15 13:39:49 2014
GPGPU-Sim PTX: 2100000 instructions simulated : ctaid=(36,0,0) tid=(410,0,0)
GPGPU-Sim uArch: cycles simulated: 10000  inst.: 2056499 (ipc=205.6) sim_rate=89413 (inst/sec) elapsed = 0:0:00:23 / Fri Aug 15 13:39:50 2014
GPGPU-Sim PTX: 2200000 instructions simulated : ctaid=(55,0,0) tid=(102,0,0)
GPGPU-Sim uArch: cycles simulated: 10500  inst.: 2200890 (ipc=209.6) sim_rate=91703 (inst/sec) elapsed = 0:0:00:24 / Fri Aug 15 13:39:51 2014
GPGPU-Sim PTX: 2300000 instructions simulated : ctaid=(46,0,0) tid=(300,0,0)
GPGPU-Sim PTX: 2400000 instructions simulated : ctaid=(55,0,0) tid=(44,0,0)
GPGPU-Sim uArch: cycles simulated: 11500  inst.: 2372868 (ipc=206.3) sim_rate=94914 (inst/sec) elapsed = 0:0:00:25 / Fri Aug 15 13:39:52 2014
GPGPU-Sim PTX: 2500000 instructions simulated : ctaid=(47,0,0) tid=(311,0,0)
GPGPU-Sim uArch: cycles simulated: 12000  inst.: 2446457 (ipc=203.9) sim_rate=94094 (inst/sec) elapsed = 0:0:00:26 / Fri Aug 15 13:39:53 2014
GPGPU-Sim PTX: 2600000 instructions simulated : ctaid=(59,0,0) tid=(472,0,0)
GPGPU-Sim uArch: Shader 8 finished CTA #1 (12880,0), 1 CTAs running
GPGPU-Sim uArch: core:  8, cta: 1 initialized @(12881,0)
GPGPU-Sim uArch: Shader 12 finished CTA #1 (12928,0), 1 CTAs running
GPGPU-Sim uArch: core: 12, cta: 1 initialized @(12929,0)
GPGPU-Sim uArch: Shader 0 finished CTA #0 (12930,0), 1 CTAs running
GPGPU-Sim uArch: core:  0, cta: 0 initialized @(12931,0)
GPGPU-Sim uArch: Shader 10 finished CTA #1 (12932,0), 1 CTAs running
GPGPU-Sim uArch: core: 10, cta: 1 initialized @(12933,0)
GPGPU-Sim uArch: cycles simulated: 13000  inst.: 2577222 (ipc=198.2) sim_rate=95452 (inst/sec) elapsed = 0:0:00:27 / Fri Aug 15 13:39:54 2014
GPGPU-Sim uArch: Shader 12 finished CTA #0 (13138,0), 1 CTAs running
GPGPU-Sim uArch: core: 12, cta: 0 initialized @(13139,0)
GPGPU-Sim uArch: Shader 8 finished CTA #0 (13140,0), 1 CTAs running
GPGPU-Sim uArch: core:  8, cta: 0 initialized @(13141,0)
GPGPU-Sim uArch: Shader 9 finished CTA #1 (13142,0), 1 CTAs running
GPGPU-Sim uArch: core:  9, cta: 1 initialized @(13143,0)
GPGPU-Sim PTX: 2700000 instructions simulated : ctaid=(40,0,0) tid=(137,0,0)
GPGPU-Sim uArch: Shader 1 finished CTA #0 (13152,0), 1 CTAs running
GPGPU-Sim uArch: core:  1, cta: 0 initialized @(13153,0)
GPGPU-Sim uArch: Shader 9 finished CTA #0 (13159,0), 1 CTAs running
GPGPU-Sim uArch: core:  9, cta: 0 initialized @(13160,0)
GPGPU-Sim uArch: Shader 0 finished CTA #1 (13249,0), 1 CTAs running
GPGPU-Sim uArch: core:  0, cta: 1 initialized @(13250,0)
GPGPU-Sim uArch: Shader 14 finished CTA #1 (13251,0), 1 CTAs running
GPGPU-Sim uArch: core: 14, cta: 1 initialized @(13252,0)
GPGPU-Sim uArch: Shader 7 finished CTA #0 (13264,0), 1 CTAs running
GPGPU-Sim uArch: core:  7, cta: 0 initialized @(13265,0)
GPGPU-Sim uArch: Shader 10 finished CTA #0 (13285,0), 1 CTAs running
GPGPU-Sim uArch: core: 10, cta: 0 initialized @(13286,0)
GPGPU-Sim uArch: Shader 14 finished CTA #0 (13343,0), 1 CTAs running
GPGPU-Sim uArch: core: 14, cta: 0 initialized @(13344,0)
GPGPU-Sim uArch: Shader 3 finished CTA #1 (13353,0), 1 CTAs running
GPGPU-Sim uArch: core:  3, cta: 1 initialized @(13354,0)
GPGPU-Sim uArch: Shader 11 finished CTA #0 (13387,0), 1 CTAs running
GPGPU-Sim uArch: core: 11, cta: 0 initialized @(13388,0)
GPGPU-Sim uArch: Shader 6 finished CTA #1 (13427,0), 1 CTAs running
GPGPU-Sim uArch: core:  6, cta: 1 initialized @(13428,0)
GPGPU-Sim PTX: 2800000 instructions simulated : ctaid=(71,0,0) tid=(122,0,0)
GPGPU-Sim uArch: Shader 11 finished CTA #1 (13454,0), 1 CTAs running
GPGPU-Sim uArch: core: 11, cta: 1 initialized @(13455,0)
GPGPU-Sim uArch: Shader 3 finished CTA #0 (13484,0), 1 CTAs running
GPGPU-Sim uArch: core:  3, cta: 0 initialized @(13485,0)
GPGPU-Sim uArch: cycles simulated: 13500  inst.: 2743761 (ipc=203.2) sim_rate=94612 (inst/sec) elapsed = 0:0:00:29 / Fri Aug 15 13:39:56 2014
GPGPU-Sim uArch: Shader 6 finished CTA #0 (13535,0), 1 CTAs running
GPGPU-Sim uArch: core:  6, cta: 0 initialized @(13536,0)
GPGPU-Sim uArch: Shader 5 finished CTA #0 (13592,0), 1 CTAs running
GPGPU-Sim uArch: core:  5, cta: 0 initialized @(13593,0)
GPGPU-Sim PTX: 2900000 instructions simulated : ctaid=(48,0,0) tid=(51,0,0)
GPGPU-Sim uArch: Shader 4 finished CTA #1 (13648,0), 1 CTAs running
GPGPU-Sim uArch: core:  4, cta: 1 initialized @(13649,0)
GPGPU-Sim uArch: Shader 13 finished CTA #1 (13650,0), 1 CTAs running
GPGPU-Sim uArch: core: 13, cta: 1 initialized @(13651,0)
GPGPU-Sim uArch: Shader 5 finished CTA #1 (13651,0), 1 CTAs running
GPGPU-Sim uArch: core:  5, cta: 1 initialized @(13652,0)
GPGPU-Sim uArch: Shader 2 finished CTA #1 (13727,0), 1 CTAs running
GPGPU-Sim uArch: core:  2, cta: 1 initialized @(13728,0)
GPGPU-Sim PTX: 3000000 instructions simulated : ctaid=(84,0,0) tid=(298,0,0)
GPGPU-Sim uArch: Shader 1 finished CTA #1 (13828,0), 1 CTAs running
GPGPU-Sim uArch: core:  1, cta: 1 initialized @(13829,0)
GPGPU-Sim uArch: Shader 7 finished CTA #1 (13839,0), 1 CTAs running
GPGPU-Sim uArch: core:  7, cta: 1 initialized @(13840,0)
GPGPU-Sim uArch: Shader 4 finished CTA #0 (13842,0), 1 CTAs running
GPGPU-Sim uArch: core:  4, cta: 0 initialized @(13843,0)
GPGPU-Sim uArch: cycles simulated: 14000  inst.: 2971183 (ipc=212.2) sim_rate=95844 (inst/sec) elapsed = 0:0:00:31 / Fri Aug 15 13:39:58 2014
GPGPU-Sim PTX: 3100000 instructions simulated : ctaid=(85,0,0) tid=(46,0,0)
GPGPU-Sim uArch: Shader 2 finished CTA #0 (14085,0), 1 CTAs running
GPGPU-Sim uArch: core:  2, cta: 0 initialized @(14086,0)
GPGPU-Sim uArch: Shader 13 finished CTA #0 (14246,0), 1 CTAs running
GPGPU-Sim uArch: core: 13, cta: 0 initialized @(14247,0)
GPGPU-Sim PTX: 3200000 instructions simulated : ctaid=(85,0,0) tid=(160,0,0)
GPGPU-Sim uArch: cycles simulated: 14500  inst.: 3160356 (ipc=218.0) sim_rate=98761 (inst/sec) elapsed = 0:0:00:32 / Fri Aug 15 13:39:59 2014
GPGPU-Sim PTX: 3300000 instructions simulated : ctaid=(65,0,0) tid=(336,0,0)
GPGPU-Sim uArch: cycles simulated: 15000  inst.: 3286526 (ipc=219.1) sim_rate=99591 (inst/sec) elapsed = 0:0:00:33 / Fri Aug 15 13:40:00 2014
GPGPU-Sim PTX: 3400000 instructions simulated : ctaid=(69,0,0) tid=(366,0,0)
GPGPU-Sim uArch: cycles simulated: 15500  inst.: 3387390 (ipc=218.5) sim_rate=99629 (inst/sec) elapsed = 0:0:00:34 / Fri Aug 15 13:40:01 2014
GPGPU-Sim PTX: 3500000 instructions simulated : ctaid=(86,0,0) tid=(376,0,0)
GPGPU-Sim PTX: 3600000 instructions simulated : ctaid=(83,0,0) tid=(306,0,0)
GPGPU-Sim uArch: cycles simulated: 16000  inst.: 3499386 (ipc=218.7) sim_rate=99982 (inst/sec) elapsed = 0:0:00:35 / Fri Aug 15 13:40:02 2014
GPGPU-Sim PTX: 3700000 instructions simulated : ctaid=(88,0,0) tid=(184,0,0)
GPGPU-Sim uArch: cycles simulated: 16500  inst.: 3610619 (ipc=218.8) sim_rate=100294 (inst/sec) elapsed = 0:0:00:36 / Fri Aug 15 13:40:03 2014
GPGPU-Sim PTX: 3800000 instructions simulated : ctaid=(82,0,0) tid=(386,0,0)
GPGPU-Sim uArch: cycles simulated: 17000  inst.: 3690812 (ipc=217.1) sim_rate=99751 (inst/sec) elapsed = 0:0:00:37 / Fri Aug 15 13:40:04 2014
GPGPU-Sim PTX: 3900000 instructions simulated : ctaid=(76,0,0) tid=(62,0,0)
GPGPU-Sim uArch: cycles simulated: 18000  inst.: 3815343 (ipc=212.0) sim_rate=100403 (inst/sec) elapsed = 0:0:00:38 / Fri Aug 15 13:40:05 2014
GPGPU-Sim uArch: cycles simulated: 18500  inst.: 3871765 (ipc=209.3) sim_rate=99276 (inst/sec) elapsed = 0:0:00:39 / Fri Aug 15 13:40:06 2014
GPGPU-Sim uArch: Shader 8 finished CTA #1 (18605,0), 1 CTAs running
GPGPU-Sim uArch: core:  8, cta: 1 initialized @(18606,0)
GPGPU-Sim PTX: 4000000 instructions simulated : ctaid=(76,0,0) tid=(499,0,0)
GPGPU-Sim uArch: Shader 9 finished CTA #1 (18688,0), 1 CTAs running
GPGPU-Sim uArch: core:  9, cta: 1 initialized @(18689,0)
GPGPU-Sim uArch: Shader 14 finished CTA #0 (18692,0), 1 CTAs running
GPGPU-Sim uArch: core: 14, cta: 0 initialized @(18693,0)
GPGPU-Sim uArch: Shader 3 finished CTA #1 (18696,0), 1 CTAs running
GPGPU-Sim uArch: core:  3, cta: 1 initialized @(18697,0)
GPGPU-Sim uArch: Shader 8 finished CTA #0 (18697,0), 1 CTAs running
GPGPU-Sim uArch: core:  8, cta: 0 initialized @(18698,0)
GPGPU-Sim uArch: Shader 9 finished CTA #0 (18705,0), 1 CTAs running
GPGPU-Sim uArch: core:  9, cta: 0 initialized @(18706,0)
GPGPU-Sim uArch: Shader 14 finished CTA #1 (18706,0), 1 CTAs running
GPGPU-Sim uArch: core: 14, cta: 1 initialized @(18707,0)
GPGPU-Sim uArch: Shader 12 finished CTA #1 (18708,0), 1 CTAs running
GPGPU-Sim uArch: core: 12, cta: 1 initialized @(18709,0)
GPGPU-Sim uArch: Shader 0 finished CTA #1 (18750,0), 1 CTAs running
GPGPU-Sim uArch: core:  0, cta: 1 initialized @(18751,0)
GPGPU-Sim uArch: Shader 3 finished CTA #0 (18755,0), 1 CTAs running
GPGPU-Sim uArch: core:  3, cta: 0 initialized @(18756,0)
GPGPU-Sim uArch: Shader 6 finished CTA #0 (18762,0), 1 CTAs running
GPGPU-Sim uArch: core:  6, cta: 0 initialized @(18763,0)
GPGPU-Sim uArch: Shader 10 finished CTA #0 (18778,0), 1 CTAs running
GPGPU-Sim uArch: core: 10, cta: 0 initialized @(18779,0)
GPGPU-Sim uArch: Shader 6 finished CTA #1 (18779,0), 1 CTAs running
GPGPU-Sim uArch: core:  6, cta: 1 initialized @(18780,0)
GPGPU-Sim uArch: Shader 0 finished CTA #0 (18785,0), 1 CTAs running
GPGPU-Sim uArch: core:  0, cta: 0 initialized @(18786,0)
GPGPU-Sim uArch: Shader 11 finished CTA #0 (18786,0), 1 CTAs running
GPGPU-Sim uArch: core: 11, cta: 0 initialized @(18787,0)
GPGPU-Sim uArch: Shader 4 finished CTA #1 (18789,0), 1 CTAs running
GPGPU-Sim uArch: core:  4, cta: 1 initialized @(18790,0)
GPGPU-Sim uArch: Shader 11 finished CTA #1 (18803,0), 1 CTAs running
GPGPU-Sim uArch: core: 11, cta: 1 initialized @(18804,0)
GPGPU-Sim uArch: Shader 10 finished CTA #1 (18813,0), 1 CTAs running
GPGPU-Sim uArch: core: 10, cta: 1 initialized @(18814,0)
GPGPU-Sim uArch: Shader 4 finished CTA #0 (18855,0), 1 CTAs running
GPGPU-Sim uArch: core:  4, cta: 0 initialized @(18856,0)
GPGPU-Sim PTX: 4100000 instructions simulated : ctaid=(97,0,0) tid=(180,0,0)
GPGPU-Sim uArch: Shader 7 finished CTA #0 (18921,0), 1 CTAs running
GPGPU-Sim uArch: core:  7, cta: 0 initialized @(18922,0)
GPGPU-Sim uArch: Shader 12 finished CTA #0 (18953,0), 1 CTAs running
GPGPU-Sim uArch: core: 12, cta: 0 initialized @(18954,0)
GPGPU-Sim uArch: cycles simulated: 19000  inst.: 4026098 (ipc=211.9) sim_rate=100652 (inst/sec) elapsed = 0:0:00:40 / Fri Aug 15 13:40:07 2014
GPGPU-Sim uArch: Shader 13 finished CTA #0 (19043,0), 1 CTAs running
GPGPU-Sim uArch: core: 13, cta: 0 initialized @(19044,0)
GPGPU-Sim PTX: 4200000 instructions simulated : ctaid=(91,0,0) tid=(115,0,0)
GPGPU-Sim uArch: Shader 13 finished CTA #1 (19079,0), 1 CTAs running
GPGPU-Sim uArch: core: 13, cta: 1 initialized @(19080,0)
GPGPU-Sim uArch: Shader 2 finished CTA #0 (19081,0), 1 CTAs running
GPGPU-Sim uArch: core:  2, cta: 0 initialized @(19082,0)
GPGPU-Sim uArch: Shader 2 finished CTA #1 (19098,0), 1 CTAs running
GPGPU-Sim uArch: core:  2, cta: 1 initialized @(19099,0)
GPGPU-Sim uArch: Shader 7 finished CTA #1 (19104,0), 1 CTAs running
GPGPU-Sim uArch: core:  7, cta: 1 initialized @(19105,0)
GPGPU-Sim uArch: Shader 1 finished CTA #0 (19131,0), 1 CTAs running
GPGPU-Sim uArch: core:  1, cta: 0 initialized @(19132,0)
GPGPU-Sim uArch: Shader 5 finished CTA #0 (19196,0), 1 CTAs running
GPGPU-Sim uArch: core:  5, cta: 0 initialized @(19197,0)
GPGPU-Sim uArch: Shader 5 finished CTA #1 (19221,0), 1 CTAs running
GPGPU-Sim uArch: core:  5, cta: 1 initialized @(19222,0)
GPGPU-Sim PTX: 4300000 instructions simulated : ctaid=(110,0,0) tid=(378,0,0)
GPGPU-Sim PTX: 4400000 instructions simulated : ctaid=(117,0,0) tid=(334,0,0)
GPGPU-Sim uArch: cycles simulated: 19500  inst.: 4274576 (ipc=219.2) sim_rate=99408 (inst/sec) elapsed = 0:0:00:43 / Fri Aug 15 13:40:10 2014
GPGPU-Sim PTX: 4500000 instructions simulated : ctaid=(106,0,0) tid=(411,0,0)
GPGPU-Sim uArch: Shader 1 finished CTA #1 (19749,0), 1 CTAs running
GPGPU-Sim uArch: core:  1, cta: 1 initialized @(19750,0)
GPGPU-Sim uArch: cycles simulated: 20000  inst.: 4464093 (ipc=223.2) sim_rate=101456 (inst/sec) elapsed = 0:0:00:44 / Fri Aug 15 13:40:11 2014
GPGPU-Sim PTX: 4600000 instructions simulated : ctaid=(111,0,0) tid=(201,0,0)
GPGPU-Sim PTX: 4700000 instructions simulated : ctaid=(107,0,0) tid=(313,0,0)
GPGPU-Sim uArch: cycles simulated: 20500  inst.: 4585906 (ipc=223.7) sim_rate=101909 (inst/sec) elapsed = 0:0:00:45 / Fri Aug 15 13:40:12 2014
GPGPU-Sim PTX: 4800000 instructions simulated : ctaid=(97,0,0) tid=(21,0,0)
GPGPU-Sim uArch: cycles simulated: 21000  inst.: 4709352 (ipc=224.3) sim_rate=102377 (inst/sec) elapsed = 0:0:00:46 / Fri Aug 15 13:40:13 2014
GPGPU-Sim PTX: 4900000 instructions simulated : ctaid=(113,0,0) tid=(4,0,0)
GPGPU-Sim PTX: 5000000 instructions simulated : ctaid=(117,0,0) tid=(486,0,0)
GPGPU-Sim uArch: cycles simulated: 22000  inst.: 4912412 (ipc=223.3) sim_rate=104519 (inst/sec) elapsed = 0:0:00:47 / Fri Aug 15 13:40:14 2014
GPGPU-Sim PTX: 5100000 instructions simulated : ctaid=(99,0,0) tid=(345,0,0)
GPGPU-Sim uArch: cycles simulated: 22500  inst.: 4981518 (ipc=221.4) sim_rate=103781 (inst/sec) elapsed = 0:0:00:48 / Fri Aug 15 13:40:15 2014
GPGPU-Sim PTX: 5200000 instructions simulated : ctaid=(119,0,0) tid=(186,0,0)
GPGPU-Sim uArch: cycles simulated: 23000  inst.: 5048144 (ipc=219.5) sim_rate=103023 (inst/sec) elapsed = 0:0:00:49 / Fri Aug 15 13:40:16 2014
GPGPU-Sim uArch: Shader 9 finished CTA #0 (23653,0), 1 CTAs running
GPGPU-Sim uArch: core:  9, cta: 0 initialized @(23654,0)
GPGPU-Sim PTX: 5300000 instructions simulated : ctaid=(112,0,0) tid=(37,0,0)
GPGPU-Sim uArch: Shader 9 finished CTA #1 (23752,0), 1 CTAs running
GPGPU-Sim uArch: core:  9, cta: 1 initialized @(23753,0)
GPGPU-Sim uArch: Shader 8 finished CTA #0 (23989,0), 1 CTAs running
GPGPU-Sim uArch: core:  8, cta: 0 initialized @(23990,0)
GPGPU-Sim uArch: Shader 12 finished CTA #1 (23991,0), 1 CTAs running
GPGPU-Sim uArch: core: 12, cta: 1 initialized @(23992,0)
GPGPU-Sim uArch: Shader 11 finished CTA #0 (23993,0), 1 CTAs running
GPGPU-Sim uArch: core: 11, cta: 0 initialized @(23994,0)
GPGPU-Sim uArch: cycles simulated: 24000  inst.: 5179229 (ipc=215.8) sim_rate=103584 (inst/sec) elapsed = 0:0:00:50 / Fri Aug 15 13:40:17 2014
GPGPU-Sim uArch: Shader 8 finished CTA #1 (24006,0), 1 CTAs running
GPGPU-Sim uArch: core:  8, cta: 1 initialized @(24007,0)
GPGPU-Sim uArch: Shader 11 finished CTA #1 (24010,0), 1 CTAs running
GPGPU-Sim uArch: core: 11, cta: 1 initialized @(24011,0)
GPGPU-Sim uArch: Shader 0 finished CTA #1 (24097,0), 1 CTAs running
GPGPU-Sim uArch: core:  0, cta: 1 initialized @(24098,0)
GPGPU-Sim uArch: Shader 6 finished CTA #1 (24099,0), 1 CTAs running
GPGPU-Sim uArch: Shader 12 finished CTA #0 (24099,0), 1 CTAs running
GPGPU-Sim uArch: core:  6, cta: 1 initialized @(24100,0)
GPGPU-Sim uArch: core: 12, cta: 0 initialized @(24100,0)
GPGPU-Sim uArch: Shader 0 finished CTA #0 (24114,0), 1 CTAs running
GPGPU-Sim uArch: core:  0, cta: 0 initialized @(24115,0)
GPGPU-Sim uArch: Shader 4 finished CTA #0 (24145,0), 1 CTAs running
GPGPU-Sim uArch: core:  4, cta: 0 initialized @(24146,0)
GPGPU-Sim uArch: Shader 4 finished CTA #1 (24162,0), 1 CTAs running
GPGPU-Sim uArch: core:  4, cta: 1 initialized @(24163,0)
GPGPU-Sim uArch: Shader 6 finished CTA #0 (24175,0), 1 CTAs running
GPGPU-Sim uArch: core:  6, cta: 0 initialized @(24176,0)
GPGPU-Sim uArch: Shader 10 finished CTA #1 (24181,0), 1 CTAs running
GPGPU-Sim uArch: core: 10, cta: 1 initialized @(24182,0)
GPGPU-Sim PTX: 5400000 instructions simulated : ctaid=(133,0,0) tid=(279,0,0)
GPGPU-Sim uArch: Shader 10 finished CTA #0 (24332,0), 1 CTAs running
GPGPU-Sim uArch: core: 10, cta: 0 initialized @(24333,0)
GPGPU-Sim PTX: 5500000 instructions simulated : ctaid=(128,0,0) tid=(219,0,0)
GPGPU-Sim uArch: Shader 3 finished CTA #0 (24425,0), 1 CTAs running
GPGPU-Sim uArch: core:  3, cta: 0 initialized @(24426,0)
GPGPU-Sim uArch: Shader 14 finished CTA #0 (24433,0), 1 CTAs running
GPGPU-Sim uArch: core: 14, cta: 0 initialized @(24434,0)
GPGPU-Sim uArch: Shader 3 finished CTA #1 (24442,0), 1 CTAs running
GPGPU-Sim uArch: core:  3, cta: 1 initialized @(24443,0)
GPGPU-Sim uArch: cycles simulated: 24500  inst.: 5366986 (ipc=219.1) sim_rate=103211 (inst/sec) elapsed = 0:0:00:52 / Fri Aug 15 13:40:19 2014
GPGPU-Sim uArch: Shader 1 finished CTA #0 (24563,0), 1 CTAs running
GPGPU-Sim uArch: core:  1, cta: 0 initialized @(24564,0)
GPGPU-Sim uArch: Shader 5 finished CTA #1 (24600,0), 1 CTAs running
GPGPU-Sim uArch: core:  5, cta: 1 initialized @(24601,0)
GPGPU-Sim uArch: Shader 1 finished CTA #1 (24602,0), 1 CTAs running
GPGPU-Sim uArch: core:  1, cta: 1 initialized @(24603,0)
GPGPU-Sim uArch: Shader 5 finished CTA #0 (24617,0), 1 CTAs running
GPGPU-Sim uArch: Shader 14 finished CTA #1 (24617,0), 1 CTAs running
GPGPU-Sim uArch: core:  5, cta: 0 initialized @(24618,0)
GPGPU-Sim uArch: core: 14, cta: 1 initialized @(24618,0)
GPGPU-Sim PTX: 5600000 instructions simulated : ctaid=(143,0,0) tid=(453,0,0)
GPGPU-Sim uArch: Shader 13 finished CTA #1 (24706,0), 1 CTAs running
GPGPU-Sim uArch: core: 13, cta: 1 initialized @(24707,0)
GPGPU-Sim uArch: Shader 7 finished CTA #0 (24751,0), 1 CTAs running
GPGPU-Sim uArch: core:  7, cta: 0 initialized @(24752,0)
GPGPU-Sim uArch: Shader 7 finished CTA #1 (24850,0), 1 CTAs running
GPGPU-Sim uArch: core:  7, cta: 1 initialized @(24851,0)
GPGPU-Sim PTX: 5700000 instructions simulated : ctaid=(122,0,0) tid=(150,0,0)
GPGPU-Sim uArch: cycles simulated: 25000  inst.: 5558499 (ipc=222.3) sim_rate=102935 (inst/sec) elapsed = 0:0:00:54 / Fri Aug 15 13:40:21 2014
GPGPU-Sim uArch: Shader 2 finished CTA #1 (25026,0), 1 CTAs running
GPGPU-Sim uArch: core:  2, cta: 1 initialized @(25027,0)
GPGPU-Sim uArch: Shader 13 finished CTA #0 (25061,0), 1 CTAs running
GPGPU-Sim uArch: core: 13, cta: 0 initialized @(25062,0)
GPGPU-Sim uArch: Shader 2 finished CTA #0 (25129,0), 1 CTAs running
GPGPU-Sim uArch: core:  2, cta: 0 initialized @(25130,0)
GPGPU-Sim PTX: 5800000 instructions simulated : ctaid=(132,0,0) tid=(194,0,0)
GPGPU-Sim PTX: 5900000 instructions simulated : ctaid=(148,0,0) tid=(396,0,0)
GPGPU-Sim uArch: cycles simulated: 25500  inst.: 5753183 (ipc=225.6) sim_rate=104603 (inst/sec) elapsed = 0:0:00:55 / Fri Aug 15 13:40:22 2014
GPGPU-Sim PTX: 6000000 instructions simulated : ctaid=(121,0,0) tid=(71,0,0)
GPGPU-Sim uArch: cycles simulated: 26000  inst.: 5888810 (ipc=226.5) sim_rate=103312 (inst/sec) elapsed = 0:0:00:57 / Fri Aug 15 13:40:24 2014
GPGPU-Sim PTX: 6100000 instructions simulated : ctaid=(129,0,0) tid=(275,0,0)
GPGPU-Sim PTX: 6200000 instructions simulated : ctaid=(149,0,0) tid=(134,0,0)
GPGPU-Sim uArch: cycles simulated: 27000  inst.: 6112368 (ipc=226.4) sim_rate=105385 (inst/sec) elapsed = 0:0:00:58 / Fri Aug 15 13:40:25 2014
GPGPU-Sim PTX: 6300000 instructions simulated : ctaid=(130,0,0) tid=(23,0,0)
GPGPU-Sim PTX: 6400000 instructions simulated : ctaid=(121,0,0) tid=(275,0,0)
GPGPU-Sim uArch: cycles simulated: 27500  inst.: 6223347 (ipc=226.3) sim_rate=105480 (inst/sec) elapsed = 0:0:00:59 / Fri Aug 15 13:40:26 2014
GPGPU-Sim uArch: cycles simulated: 28000  inst.: 6285502 (ipc=224.5) sim_rate=104758 (inst/sec) elapsed = 0:0:01:00 / Fri Aug 15 13:40:27 2014
GPGPU-Sim PTX: 6500000 instructions simulated : ctaid=(130,0,0) tid=(436,0,0)
GPGPU-Sim uArch: cycles simulated: 28500  inst.: 6366569 (ipc=223.4) sim_rate=104369 (inst/sec) elapsed = 0:0:01:01 / Fri Aug 15 13:40:28 2014
GPGPU-Sim PTX: 6600000 instructions simulated : ctaid=(136,0,0) tid=(148,0,0)
GPGPU-Sim uArch: Shader 4 finished CTA #0 (29247,0), 1 CTAs running
GPGPU-Sim uArch: core:  4, cta: 0 initialized @(29248,0)
GPGPU-Sim uArch: Shader 11 finished CTA #0 (29253,0), 1 CTAs running
GPGPU-Sim uArch: core: 11, cta: 0 initialized @(29254,0)
GPGPU-Sim uArch: Shader 9 finished CTA #1 (29255,0), 1 CTAs running
GPGPU-Sim uArch: core:  9, cta: 1 initialized @(29256,0)
GPGPU-Sim uArch: Shader 4 finished CTA #1 (29282,0), 1 CTAs running
GPGPU-Sim uArch: core:  4, cta: 1 initialized @(29283,0)
GPGPU-Sim uArch: Shader 12 finished CTA #1 (29307,0), 1 CTAs running
GPGPU-Sim uArch: core: 12, cta: 1 initialized @(29308,0)
GPGPU-Sim uArch: Shader 10 finished CTA #0 (29348,0), 1 CTAs running
GPGPU-Sim uArch: core: 10, cta: 0 initialized @(29349,0)
GPGPU-Sim uArch: Shader 6 finished CTA #1 (29398,0), 1 CTAs running
GPGPU-Sim uArch: Shader 8 finished CTA #0 (29398,0), 1 CTAs running
GPGPU-Sim uArch: core:  6, cta: 1 initialized @(29399,0)
GPGPU-Sim uArch: core:  8, cta: 0 initialized @(29399,0)
GPGPU-Sim uArch: Shader 10 finished CTA #1 (29407,0), 1 CTAs running
GPGPU-Sim uArch: core: 10, cta: 1 initialized @(29408,0)
GPGPU-Sim PTX: 6700000 instructions simulated : ctaid=(155,0,0) tid=(86,0,0)
GPGPU-Sim uArch: Shader 9 finished CTA #0 (29422,0), 1 CTAs running
GPGPU-Sim uArch: core:  9, cta: 0 initialized @(29423,0)
GPGPU-Sim uArch: Shader 6 finished CTA #0 (29455,0), 1 CTAs running
GPGPU-Sim uArch: core:  6, cta: 0 initialized @(29456,0)
GPGPU-Sim uArch: Shader 8 finished CTA #1 (29464,0), 1 CTAs running
GPGPU-Sim uArch: core:  8, cta: 1 initialized @(29465,0)
GPGPU-Sim uArch: cycles simulated: 29500  inst.: 6532044 (ipc=221.4) sim_rate=103683 (inst/sec) elapsed = 0:0:01:03 / Fri Aug 15 13:40:30 2014
GPGPU-Sim uArch: Shader 11 finished CTA #1 (29591,0), 1 CTAs running
GPGPU-Sim uArch: core: 11, cta: 1 initialized @(29592,0)
GPGPU-Sim uArch: Shader 14 finished CTA #1 (29598,0), 1 CTAs running
GPGPU-Sim uArch: core: 14, cta: 1 initialized @(29599,0)
GPGPU-Sim uArch: Shader 3 finished CTA #1 (29637,0), 1 CTAs running
GPGPU-Sim uArch: core:  3, cta: 1 initialized @(29638,0)
GPGPU-Sim PTX: 6800000 instructions simulated : ctaid=(150,0,0) tid=(176,0,0)
GPGPU-Sim uArch: Shader 12 finished CTA #0 (29668,0), 1 CTAs running
GPGPU-Sim uArch: core: 12, cta: 0 initialized @(29669,0)
GPGPU-Sim uArch: Shader 0 finished CTA #1 (29683,0), 1 CTAs running
GPGPU-Sim uArch: core:  0, cta: 1 initialized @(29684,0)
GPGPU-Sim uArch: Shader 14 finished CTA #0 (29706,0), 1 CTAs running
GPGPU-Sim uArch: core: 14, cta: 0 initialized @(29707,0)
GPGPU-Sim uArch: Shader 3 finished CTA #0 (29709,0), 1 CTAs running
GPGPU-Sim uArch: core:  3, cta: 0 initialized @(29710,0)
GPGPU-Sim uArch: Shader 1 finished CTA #1 (29718,0), 1 CTAs running
GPGPU-Sim uArch: core:  1, cta: 1 initialized @(29719,0)
GPGPU-Sim uArch: Shader 1 finished CTA #0 (29784,0), 1 CTAs running
GPGPU-Sim uArch: core:  1, cta: 0 initialized @(29785,0)
GPGPU-Sim PTX: 6900000 instructions simulated : ctaid=(151,0,0) tid=(392,0,0)
GPGPU-Sim uArch: cycles simulated: 30000  inst.: 6737718 (ipc=224.6) sim_rate=103657 (inst/sec) elapsed = 0:0:01:05 / Fri Aug 15 13:40:32 2014
GPGPU-Sim uArch: Shader 7 finished CTA #1 (30131,0), 1 CTAs running
GPGPU-Sim uArch: core:  7, cta: 1 initialized @(30132,0)
GPGPU-Sim PTX: 7000000 instructions simulated : ctaid=(170,0,0) tid=(344,0,0)
GPGPU-Sim uArch: Shader 13 finished CTA #1 (30219,0), 1 CTAs running
GPGPU-Sim uArch: core: 13, cta: 1 initialized @(30220,0)
GPGPU-Sim uArch: Shader 7 finished CTA #0 (30223,0), 1 CTAs running
GPGPU-Sim uArch: core:  7, cta: 0 initialized @(30224,0)
GPGPU-Sim uArch: Shader 5 finished CTA #0 (30231,0), 1 CTAs running
GPGPU-Sim uArch: core:  5, cta: 0 initialized @(30232,0)
GPGPU-Sim uArch: Shader 0 finished CTA #0 (30278,0), 1 CTAs running
GPGPU-Sim uArch: core:  0, cta: 0 initialized @(30279,0)
GPGPU-Sim uArch: Shader 5 finished CTA #1 (30288,0), 1 CTAs running
GPGPU-Sim uArch: core:  5, cta: 1 initialized @(30289,0)
GPGPU-Sim uArch: Shader 13 finished CTA #0 (30350,0), 1 CTAs running
GPGPU-Sim uArch: core: 13, cta: 0 initialized @(30351,0)
GPGPU-Sim uArch: Shader 2 finished CTA #1 (30389,0), 1 CTAs running
GPGPU-Sim uArch: core:  2, cta: 1 initialized @(30390,0)
GPGPU-Sim PTX: 7100000 instructions simulated : ctaid=(173,0,0) tid=(370,0,0)
GPGPU-Sim uArch: cycles simulated: 30500  inst.: 6904314 (ipc=226.4) sim_rate=104610 (inst/sec) elapsed = 0:0:01:06 / Fri Aug 15 13:40:33 2014
GPGPU-Sim uArch: Shader 2 finished CTA #0 (30520,0), 1 CTAs running
GPGPU-Sim uArch: core:  2, cta: 0 initialized @(30521,0)
GPGPU-Sim PTX: 7200000 instructions simulated : ctaid=(162,0,0) tid=(58,0,0)
GPGPU-Sim uArch: cycles simulated: 31000  inst.: 7064527 (ipc=227.9) sim_rate=105440 (inst/sec) elapsed = 0:0:01:07 / Fri Aug 15 13:40:34 2014
GPGPU-Sim PTX: 7300000 instructions simulated : ctaid=(172,0,0) tid=(286,0,0)
GPGPU-Sim uArch: cycles simulated: 31500  inst.: 7164112 (ipc=227.4) sim_rate=105354 (inst/sec) elapsed = 0:0:01:08 / Fri Aug 15 13:40:35 2014
GPGPU-Sim PTX: 7400000 instructions simulated : ctaid=(179,0,0) tid=(296,0,0)
GPGPU-Sim uArch: cycles simulated: 32000  inst.: 7264503 (ipc=227.0) sim_rate=105282 (inst/sec) elapsed = 0:0:01:09 / Fri Aug 15 13:40:36 2014
GPGPU-Sim PTX: 7500000 instructions simulated : ctaid=(160,0,0) tid=(111,0,0)
GPGPU-Sim PTX: 7600000 instructions simulated : ctaid=(164,0,0) tid=(295,0,0)
GPGPU-Sim uArch: cycles simulated: 32500  inst.: 7391879 (ipc=227.4) sim_rate=105598 (inst/sec) elapsed = 0:0:01:10 / Fri Aug 15 13:40:37 2014
GPGPU-Sim PTX: 7700000 instructions simulated : ctaid=(177,0,0) tid=(463,0,0)
GPGPU-Sim PTX: 7800000 instructions simulated : ctaid=(152,0,0) tid=(426,0,0)
GPGPU-Sim uArch: cycles simulated: 33500  inst.: 7564962 (ipc=225.8) sim_rate=106548 (inst/sec) elapsed = 0:0:01:11 / Fri Aug 15 13:40:38 2014
GPGPU-Sim uArch: cycles simulated: 34000  inst.: 7630695 (ipc=224.4) sim_rate=105981 (inst/sec) elapsed = 0:0:01:12 / Fri Aug 15 13:40:39 2014
GPGPU-Sim PTX: 7900000 instructions simulated : ctaid=(172,0,0) tid=(426,0,0)
GPGPU-Sim uArch: Shader 9 finished CTA #0 (34327,0), 1 CTAs running
GPGPU-Sim uArch: core:  9, cta: 0 initialized @(34328,0)
GPGPU-Sim uArch: cycles simulated: 34500  inst.: 7706668 (ipc=223.4) sim_rate=105570 (inst/sec) elapsed = 0:0:01:13 / Fri Aug 15 13:40:40 2014
GPGPU-Sim uArch: Shader 9 finished CTA #1 (34610,0), 1 CTAs running
GPGPU-Sim uArch: core:  9, cta: 1 initialized @(34611,0)
GPGPU-Sim PTX: 8000000 instructions simulated : ctaid=(171,0,0) tid=(247,0,0)
GPGPU-Sim uArch: cycles simulated: 35000  inst.: 7784716 (ipc=222.4) sim_rate=105198 (inst/sec) elapsed = 0:0:01:14 / Fri Aug 15 13:40:41 2014
GPGPU-Sim uArch: Shader 3 finished CTA #1 (35007,0), 1 CTAs running
GPGPU-Sim uArch: core:  3, cta: 1 initialized @(35008,0)
GPGPU-Sim uArch: Shader 14 finished CTA #0 (35011,0), 1 CTAs running
GPGPU-Sim uArch: core: 14, cta: 0 initialized @(35012,0)
GPGPU-Sim uArch: Shader 1 finished CTA #1 (35013,0), 1 CTAs running
GPGPU-Sim uArch: core:  1, cta: 1 initialized @(35014,0)
GPGPU-Sim uArch: Shader 3 finished CTA #0 (35024,0), 1 CTAs running
GPGPU-Sim uArch: core:  3, cta: 0 initialized @(35025,0)
GPGPU-Sim uArch: Shader 4 finished CTA #1 (35083,0), 1 CTAs running
GPGPU-Sim uArch: core:  4, cta: 1 initialized @(35084,0)
GPGPU-Sim uArch: Shader 14 finished CTA #1 (35087,0), 1 CTAs running
GPGPU-Sim uArch: core: 14, cta: 1 initialized @(35088,0)
GPGPU-Sim uArch: Shader 1 finished CTA #0 (35089,0), 1 CTAs running
GPGPU-Sim uArch: core:  1, cta: 0 initialized @(35090,0)
GPGPU-Sim uArch: Shader 4 finished CTA #0 (35100,0), 1 CTAs running
GPGPU-Sim uArch: core:  4, cta: 0 initialized @(35101,0)
GPGPU-Sim uArch: Shader 10 finished CTA #1 (35167,0), 1 CTAs running
GPGPU-Sim uArch: core: 10, cta: 1 initialized @(35168,0)
GPGPU-Sim uArch: Shader 10 finished CTA #0 (35184,0), 1 CTAs running
GPGPU-Sim uArch: core: 10, cta: 0 initialized @(35185,0)
GPGPU-Sim uArch: Shader 11 finished CTA #0 (35222,0), 1 CTAs running
GPGPU-Sim uArch: core: 11, cta: 0 initialized @(35223,0)
GPGPU-Sim PTX: 8100000 instructions simulated : ctaid=(177,0,0) tid=(480,0,0)
GPGPU-Sim uArch: Shader 11 finished CTA #1 (35310,0), 1 CTAs running
GPGPU-Sim uArch: core: 11, cta: 1 initialized @(35311,0)
GPGPU-Sim uArch: Shader 2 finished CTA #0 (35329,0), 1 CTAs running
GPGPU-Sim uArch: core:  2, cta: 0 initialized @(35330,0)
GPGPU-Sim uArch: Shader 7 finished CTA #1 (35371,0), 1 CTAs running
GPGPU-Sim uArch: core:  7, cta: 1 initialized @(35372,0)
GPGPU-Sim uArch: Shader 8 finished CTA #1 (35395,0), 1 CTAs running
GPGPU-Sim uArch: core:  8, cta: 1 initialized @(35396,0)
GPGPU-Sim uArch: Shader 7 finished CTA #0 (35409,0), 1 CTAs running
GPGPU-Sim uArch: core:  7, cta: 0 initialized @(35410,0)
GPGPU-Sim uArch: Shader 8 finished CTA #0 (35412,0), 1 CTAs running
GPGPU-Sim uArch: core:  8, cta: 0 initialized @(35413,0)
GPGPU-Sim uArch: Shader 12 finished CTA #1 (35416,0), 1 CTAs running
GPGPU-Sim uArch: core: 12, cta: 1 initialized @(35417,0)
GPGPU-Sim PTX: 8200000 instructions simulated : ctaid=(195,0,0) tid=(218,0,0)
GPGPU-Sim uArch: Shader 6 finished CTA #1 (35470,0), 1 CTAs running
GPGPU-Sim uArch: core:  6, cta: 1 initialized @(35471,0)
GPGPU-Sim uArch: cycles simulated: 35500  inst.: 7968244 (ipc=224.5) sim_rate=104845 (inst/sec) elapsed = 0:0:01:16 / Fri Aug 15 13:40:43 2014
GPGPU-Sim uArch: Shader 0 finished CTA #1 (35545,0), 1 CTAs running
GPGPU-Sim uArch: core:  0, cta: 1 initialized @(35546,0)
GPGPU-Sim uArch: Shader 6 finished CTA #0 (35562,0), 1 CTAs running
GPGPU-Sim uArch: core:  6, cta: 0 initialized @(35563,0)
GPGPU-Sim uArch: Shader 0 finished CTA #0 (35583,0), 1 CTAs running
GPGPU-Sim uArch: core:  0, cta: 0 initialized @(35584,0)
GPGPU-Sim uArch: Shader 12 finished CTA #0 (35598,0), 1 CTAs running
GPGPU-Sim uArch: core: 12, cta: 0 initialized @(35599,0)
GPGPU-Sim PTX: 8300000 instructions simulated : ctaid=(202,0,0) tid=(485,0,0)
GPGPU-Sim uArch: Shader 2 finished CTA #1 (35691,0), 1 CTAs running
GPGPU-Sim uArch: core:  2, cta: 1 initialized @(35692,0)
GPGPU-Sim PTX: 8400000 instructions simulated : ctaid=(203,0,0) tid=(488,0,0)
GPGPU-Sim uArch: cycles simulated: 36000  inst.: 8153688 (ipc=226.5) sim_rate=105892 (inst/sec) elapsed = 0:0:01:17 / Fri Aug 15 13:40:44 2014
GPGPU-Sim uArch: Shader 5 finished CTA #1 (36282,0), 1 CTAs running
GPGPU-Sim uArch: core:  5, cta: 1 initialized @(36283,0)
GPGPU-Sim uArch: Shader 13 finished CTA #1 (36312,0), 1 CTAs running
GPGPU-Sim uArch: core: 13, cta: 1 initialized @(36313,0)
GPGPU-Sim uArch: Shader 5 finished CTA #0 (36374,0), 1 CTAs running
GPGPU-Sim uArch: core:  5, cta: 0 initialized @(36375,0)
GPGPU-Sim PTX: 8500000 instructions simulated : ctaid=(206,0,0) tid=(112,0,0)
GPGPU-Sim uArch: Shader 13 finished CTA #0 (36481,0), 1 CTAs running
GPGPU-Sim uArch: core: 13, cta: 0 initialized @(36482,0)
GPGPU-Sim uArch: cycles simulated: 36500  inst.: 8269528 (ipc=226.6) sim_rate=106019 (inst/sec) elapsed = 0:0:01:18 / Fri Aug 15 13:40:45 2014
GPGPU-Sim PTX: 8600000 instructions simulated : ctaid=(196,0,0) tid=(23,0,0)
GPGPU-Sim uArch: cycles simulated: 37000  inst.: 8438844 (ipc=228.1) sim_rate=106820 (inst/sec) elapsed = 0:0:01:19 / Fri Aug 15 13:40:46 2014
GPGPU-Sim PTX: 8700000 instructions simulated : ctaid=(208,0,0) tid=(260,0,0)
GPGPU-Sim PTX: 8800000 instructions simulated : ctaid=(203,0,0) tid=(470,0,0)
GPGPU-Sim uArch: cycles simulated: 37500  inst.: 8547368 (ipc=227.9) sim_rate=106842 (inst/sec) elapsed = 0:0:01:20 / Fri Aug 15 13:40:47 2014
GPGPU-Sim PTX: 8900000 instructions simulated : ctaid=(182,0,0) tid=(463,0,0)
GPGPU-Sim uArch: cycles simulated: 38000  inst.: 8647019 (ipc=227.6) sim_rate=106753 (inst/sec) elapsed = 0:0:01:21 / Fri Aug 15 13:40:48 2014
GPGPU-Sim PTX: 9000000 instructions simulated : ctaid=(181,0,0) tid=(58,0,0)
GPGPU-Sim uArch: cycles simulated: 38500  inst.: 8768968 (ipc=227.8) sim_rate=106938 (inst/sec) elapsed = 0:0:01:22 / Fri Aug 15 13:40:49 2014
GPGPU-Sim PTX: 9100000 instructions simulated : ctaid=(204,0,0) tid=(465,0,0)
GPGPU-Sim PTX: 9200000 instructions simulated : ctaid=(202,0,0) tid=(148,0,0)
GPGPU-Sim uArch: cycles simulated: 39500  inst.: 8926043 (ipc=226.0) sim_rate=107542 (inst/sec) elapsed = 0:0:01:23 / Fri Aug 15 13:40:50 2014
GPGPU-Sim uArch: Shader 9 finished CTA #0 (39817,0), 1 CTAs running
GPGPU-Sim uArch: core:  9, cta: 0 initialized @(39818,0)
GPGPU-Sim uArch: Shader 9 finished CTA #1 (39874,0), 1 CTAs running
GPGPU-Sim uArch: core:  9, cta: 1 initialized @(39875,0)
GPGPU-Sim uArch: Shader 1 finished CTA #1 (39882,0), 1 CTAs running
GPGPU-Sim uArch: core:  1, cta: 1 initialized @(39883,0)
GPGPU-Sim uArch: cycles simulated: 40000  inst.: 8992194 (ipc=224.8) sim_rate=107049 (inst/sec) elapsed = 0:0:01:24 / Fri Aug 15 13:40:51 2014
GPGPU-Sim uArch: Shader 1 finished CTA #0 (40076,0), 1 CTAs running
GPGPU-Sim uArch: core:  1, cta: 0 initialized @(40077,0)
GPGPU-Sim PTX: 9300000 instructions simulated : ctaid=(212,0,0) tid=(208,0,0)
GPGPU-Sim uArch: Shader 4 finished CTA #1 (40138,0), 1 CTAs running
GPGPU-Sim uArch: core:  4, cta: 1 initialized @(40139,0)
GPGPU-Sim uArch: Shader 4 finished CTA #0 (40230,0), 1 CTAs running
GPGPU-Sim uArch: core:  4, cta: 0 initialized @(40231,0)
GPGPU-Sim PTX: 9400000 instructions simulated : ctaid=(200,0,0) tid=(291,0,0)
GPGPU-Sim uArch: cycles simulated: 40500  inst.: 9110536 (ipc=225.0) sim_rate=107182 (inst/sec) elapsed = 0:0:01:25 / Fri Aug 15 13:40:52 2014
GPGPU-Sim uArch: Shader 14 finished CTA #0 (40553,0), 1 CTAs running
GPGPU-Sim uArch: core: 14, cta: 0 initialized @(40554,0)
GPGPU-Sim uArch: Shader 14 finished CTA #1 (40589,0), 1 CTAs running
GPGPU-Sim uArch: core: 14, cta: 1 initialized @(40590,0)
GPGPU-Sim uArch: Shader 3 finished CTA #0 (40928,0), 1 CTAs running
GPGPU-Sim uArch: core:  3, cta: 0 initialized @(40929,0)
GPGPU-Sim uArch: Shader 10 finished CTA #0 (40946,0), 1 CTAs running
GPGPU-Sim uArch: core: 10, cta: 0 initialized @(40947,0)
GPGPU-Sim uArch: Shader 10 finished CTA #1 (40971,0), 1 CTAs running
GPGPU-Sim uArch: core: 10, cta: 1 initialized @(40972,0)
GPGPU-Sim uArch: cycles simulated: 41000  inst.: 9198705 (ipc=224.4) sim_rate=106961 (inst/sec) elapsed = 0:0:01:26 / Fri Aug 15 13:40:53 2014
GPGPU-Sim uArch: Shader 8 finished CTA #0 (41055,0), 1 CTAs running
GPGPU-Sim uArch: core:  8, cta: 0 initialized @(41056,0)
GPGPU-Sim PTX: 9500000 instructions simulated : ctaid=(218,0,0) tid=(191,0,0)
GPGPU-Sim uArch: Shader 6 finished CTA #0 (41072,0), 1 CTAs running
GPGPU-Sim uArch: core:  6, cta: 0 initialized @(41073,0)
GPGPU-Sim uArch: Shader 7 finished CTA #1 (41076,0), 1 CTAs running
GPGPU-Sim uArch: core:  7, cta: 1 initialized @(41077,0)
GPGPU-Sim uArch: Shader 6 finished CTA #1 (41089,0), 1 CTAs running
GPGPU-Sim uArch: core:  6, cta: 1 initialized @(41090,0)
GPGPU-Sim uArch: Shader 0 finished CTA #1 (41093,0), 1 CTAs running
GPGPU-Sim uArch: core:  0, cta: 1 initialized @(41094,0)
GPGPU-Sim uArch: Shader 2 finished CTA #1 (41135,0), 1 CTAs running
GPGPU-Sim uArch: core:  2, cta: 1 initialized @(41136,0)
GPGPU-Sim uArch: Shader 11 finished CTA #0 (41139,0), 1 CTAs running
GPGPU-Sim uArch: core: 11, cta: 0 initialized @(41140,0)
GPGPU-Sim uArch: Shader 12 finished CTA #1 (41143,0), 1 CTAs running
GPGPU-Sim uArch: core: 12, cta: 1 initialized @(41144,0)
GPGPU-Sim uArch: Shader 2 finished CTA #0 (41152,0), 1 CTAs running
GPGPU-Sim uArch: core:  2, cta: 0 initialized @(41153,0)
GPGPU-Sim uArch: Shader 3 finished CTA #1 (41156,0), 1 CTAs running
GPGPU-Sim uArch: core:  3, cta: 1 initialized @(41157,0)
GPGPU-Sim uArch: Shader 12 finished CTA #0 (41160,0), 1 CTAs running
GPGPU-Sim uArch: core: 12, cta: 0 initialized @(41161,0)
GPGPU-Sim uArch: Shader 11 finished CTA #1 (41174,0), 1 CTAs running
GPGPU-Sim uArch: core: 11, cta: 1 initialized @(41175,0)
GPGPU-Sim uArch: Shader 8 finished CTA #1 (41184,0), 1 CTAs running
GPGPU-Sim uArch: core:  8, cta: 1 initialized @(41185,0)
GPGPU-Sim uArch: Shader 7 finished CTA #0 (41205,0), 1 CTAs running
GPGPU-Sim uArch: core:  7, cta: 0 initialized @(41206,0)
GPGPU-Sim PTX: 9600000 instructions simulated : ctaid=(224,0,0) tid=(28,0,0)
GPGPU-Sim uArch: Shader 0 finished CTA #0 (41393,0), 1 CTAs running
GPGPU-Sim uArch: core:  0, cta: 0 initialized @(41394,0)
GPGPU-Sim PTX: 9700000 instructions simulated : ctaid=(230,0,0) tid=(86,0,0)
GPGPU-Sim uArch: cycles simulated: 41500  inst.: 9423696 (ipc=227.1) sim_rate=107087 (inst/sec) elapsed = 0:0:01:28 / Fri Aug 15 13:40:55 2014
GPGPU-Sim PTX: 9800000 instructions simulated : ctaid=(227,0,0) tid=(162,0,0)
GPGPU-Sim uArch: cycles simulated: 42000  inst.: 9547052 (ipc=227.3) sim_rate=106078 (inst/sec) elapsed = 0:0:01:30 / Fri Aug 15 13:40:57 2014
GPGPU-Sim uArch: Shader 5 finished CTA #1 (42101,0), 1 CTAs running
GPGPU-Sim uArch: core:  5, cta: 1 initialized @(42102,0)
GPGPU-Sim uArch: Shader 13 finished CTA #0 (42102,0), 1 CTAs running
GPGPU-Sim uArch: core: 13, cta: 0 initialized @(42103,0)
GPGPU-Sim PTX: 9900000 instructions simulated : ctaid=(237,0,0) tid=(345,0,0)
GPGPU-Sim uArch: Shader 5 finished CTA #0 (42373,0), 1 CTAs running
GPGPU-Sim uArch: core:  5, cta: 0 initialized @(42374,0)
GPGPU-Sim uArch: cycles simulated: 42500  inst.: 9696953 (ipc=228.2) sim_rate=106559 (inst/sec) elapsed = 0:0:01:31 / Fri Aug 15 13:40:58 2014
GPGPU-Sim PTX: 10000000 instructions simulated : ctaid=(215,0,0) tid=(300,0,0)
GPGPU-Sim uArch: Shader 13 finished CTA #1 (42658,0), 1 CTAs running
GPGPU-Sim uArch: core: 13, cta: 1 initialized @(42659,0)
GPGPU-Sim PTX: 10100000 instructions simulated : ctaid=(213,0,0) tid=(360,0,0)
GPGPU-Sim uArch: cycles simulated: 43000  inst.: 9817801 (ipc=228.3) sim_rate=106715 (inst/sec) elapsed = 0:0:01:32 / Fri Aug 15 13:40:59 2014
GPGPU-Sim PTX: 10200000 instructions simulated : ctaid=(238,0,0) tid=(410,0,0)
GPGPU-Sim uArch: cycles simulated: 43500  inst.: 9934895 (ipc=228.4) sim_rate=106826 (inst/sec) elapsed = 0:0:01:33 / Fri Aug 15 13:41:00 2014
GPGPU-Sim PTX: 10300000 instructions simulated : ctaid=(232,0,0) tid=(443,0,0)
GPGPU-Sim uArch: cycles simulated: 44000  inst.: 10045696 (ipc=228.3) sim_rate=106869 (inst/sec) elapsed = 0:0:01:34 / Fri Aug 15 13:41:01 2014
GPGPU-Sim PTX: 10400000 instructions simulated : ctaid=(215,0,0) tid=(421,0,0)
GPGPU-Sim PTX: 10500000 instructions simulated : ctaid=(233,0,0) tid=(394,0,0)
GPGPU-Sim uArch: cycles simulated: 45000  inst.: 10208783 (ipc=226.9) sim_rate=107460 (inst/sec) elapsed = 0:0:01:35 / Fri Aug 15 13:41:02 2014
GPGPU-Sim uArch: Shader 1 finished CTA #1 (45166,0), 1 CTAs running
GPGPU-Sim uArch: core:  1, cta: 1 initialized @(45167,0)
GPGPU-Sim uArch: Shader 1 finished CTA #0 (45183,0), 1 CTAs running
GPGPU-Sim uArch: core:  1, cta: 0 initialized @(45184,0)
GPGPU-Sim uArch: Shader 9 finished CTA #0 (45425,0), 1 CTAs running
GPGPU-Sim uArch: core:  9, cta: 0 initialized @(45426,0)
GPGPU-Sim uArch: Shader 9 finished CTA #1 (45450,0), 1 CTAs running
GPGPU-Sim uArch: core:  9, cta: 1 initialized @(45451,0)
GPGPU-Sim PTX: 10600000 instructions simulated : ctaid=(243,0,0) tid=(315,0,0)
GPGPU-Sim uArch: cycles simulated: 45500  inst.: 10282861 (ipc=226.0) sim_rate=107113 (inst/sec) elapsed = 0:0:01:36 / Fri Aug 15 13:41:03 2014
GPGPU-Sim uArch: Shader 4 finished CTA #1 (45636,0), 1 CTAs running
GPGPU-Sim uArch: core:  4, cta: 1 initialized @(45637,0)
GPGPU-Sim uArch: Shader 4 finished CTA #0 (45671,0), 1 CTAs running
GPGPU-Sim uArch: core:  4, cta: 0 initialized @(45672,0)
GPGPU-Sim PTX: 10700000 instructions simulated : ctaid=(244,0,0) tid=(198,0,0)
GPGPU-Sim uArch: Shader 14 finished CTA #0 (45973,0), 1 CTAs running
GPGPU-Sim uArch: core: 14, cta: 0 initialized @(45974,0)
GPGPU-Sim uArch: cycles simulated: 46000  inst.: 10388494 (ipc=225.8) sim_rate=107097 (inst/sec) elapsed = 0:0:01:37 / Fri Aug 15 13:41:04 2014
GPGPU-Sim uArch: Shader 14 finished CTA #1 (46356,0), 1 CTAs running
GPGPU-Sim uArch: core: 14, cta: 1 initialized @(46357,0)
GPGPU-Sim uArch: Shader 10 finished CTA #0 (46357,0), 1 CTAs running
GPGPU-Sim uArch: core: 10, cta: 0 initialized @(46358,0)
GPGPU-Sim uArch: cycles simulated: 46500  inst.: 10468800 (ipc=225.1) sim_rate=106824 (inst/sec) elapsed = 0:0:01:38 / Fri Aug 15 13:41:05 2014
GPGPU-Sim PTX: 10800000 instructions simulated : ctaid=(243,0,0) tid=(79,0,0)
GPGPU-Sim uArch: Shader 10 finished CTA #1 (46552,0), 1 CTAs running
GPGPU-Sim uArch: core: 10, cta: 1 initialized @(46553,0)
GPGPU-Sim uArch: Shader 8 finished CTA #0 (46604,0), 1 CTAs running
GPGPU-Sim uArch: core:  8, cta: 0 initialized @(46605,0)
GPGPU-Sim uArch: Shader 6 finished CTA #1 (46611,0), 1 CTAs running
GPGPU-Sim uArch: core:  6, cta: 1 initialized @(46612,0)
GPGPU-Sim uArch: Shader 2 finished CTA #1 (46640,0), 1 CTAs running
GPGPU-Sim uArch: core:  2, cta: 1 initialized @(46641,0)
GPGPU-Sim uArch: Shader 2 finished CTA #0 (46723,0), 1 CTAs running
GPGPU-Sim uArch: core:  2, cta: 0 initialized @(46724,0)
GPGPU-Sim uArch: Shader 11 finished CTA #1 (46745,0), 1 CTAs running
GPGPU-Sim uArch: core: 11, cta: 1 initialized @(46746,0)
GPGPU-Sim PTX: 10900000 instructions simulated : ctaid=(236,0,0) tid=(381,0,0)
GPGPU-Sim uArch: Shader 8 finished CTA #1 (46819,0), 1 CTAs running
GPGPU-Sim uArch: core:  8, cta: 1 initialized @(46820,0)
GPGPU-Sim uArch: Shader 11 finished CTA #0 (46941,0), 1 CTAs running
GPGPU-Sim uArch: core: 11, cta: 0 initialized @(46942,0)
GPGPU-Sim uArch: cycles simulated: 47000  inst.: 10629460 (ipc=226.2) sim_rate=106294 (inst/sec) elapsed = 0:0:01:40 / Fri Aug 15 13:41:07 2014
GPGPU-Sim uArch: Shader 12 finished CTA #1 (47017,0), 1 CTAs running
GPGPU-Sim uArch: core: 12, cta: 1 initialized @(47018,0)
GPGPU-Sim uArch: Shader 0 finished CTA #0 (47042,0), 1 CTAs running
GPGPU-Sim uArch: core:  0, cta: 0 initialized @(47043,0)
GPGPU-Sim uArch: Shader 3 finished CTA #0 (47056,0), 1 CTAs running
GPGPU-Sim uArch: core:  3, cta: 0 initialized @(47057,0)
GPGPU-Sim uArch: Shader 12 finished CTA #0 (47058,0), 1 CTAs running
GPGPU-Sim uArch: core: 12, cta: 0 initialized @(47059,0)
GPGPU-Sim uArch: Shader 3 finished CTA #1 (47073,0), 1 CTAs running
GPGPU-Sim uArch: core:  3, cta: 1 initialized @(47074,0)
GPGPU-Sim PTX: 11000000 instructions simulated : ctaid=(257,0,0) tid=(474,0,0)
GPGPU-Sim uArch: Shader 6 finished CTA #0 (47163,0), 1 CTAs running
GPGPU-Sim uArch: core:  6, cta: 0 initialized @(47164,0)
GPGPU-Sim uArch: Shader 0 finished CTA #1 (47255,0), 1 CTAs running
GPGPU-Sim uArch: core:  0, cta: 1 initialized @(47256,0)
GPGPU-Sim uArch: Shader 7 finished CTA #0 (47323,0), 1 CTAs running
GPGPU-Sim uArch: core:  7, cta: 0 initialized @(47324,0)
GPGPU-Sim PTX: 11100000 instructions simulated : ctaid=(252,0,0) tid=(380,0,0)
GPGPU-Sim uArch: Shader 5 finished CTA #0 (47417,0), 1 CTAs running
GPGPU-Sim uArch: core:  5, cta: 0 initialized @(47418,0)
GPGPU-Sim uArch: Shader 7 finished CTA #1 (47461,0), 1 CTAs running
GPGPU-Sim uArch: core:  7, cta: 1 initialized @(47462,0)
GPGPU-Sim uArch: cycles simulated: 47500  inst.: 10801818 (ipc=227.4) sim_rate=106948 (inst/sec) elapsed = 0:0:01:41 / Fri Aug 15 13:41:08 2014
GPGPU-Sim uArch: Shader 13 finished CTA #0 (47590,0), 1 CTAs running
GPGPU-Sim uArch: core: 13, cta: 0 initialized @(47591,0)
GPGPU-Sim PTX: 11200000 instructions simulated : ctaid=(265,0,0) tid=(398,0,0)
GPGPU-Sim uArch: Shader 5 finished CTA #1 (47632,0), 1 CTAs running
GPGPU-Sim uArch: core:  5, cta: 1 initialized @(47633,0)
GPGPU-Sim uArch: Shader 13 finished CTA #1 (47673,0), 1 CTAs running
GPGPU-Sim uArch: core: 13, cta: 1 initialized @(47674,0)
GPGPU-Sim PTX: 11300000 instructions simulated : ctaid=(269,0,0) tid=(373,0,0)
GPGPU-Sim uArch: cycles simulated: 48000  inst.: 10965579 (ipc=228.4) sim_rate=106461 (inst/sec) elapsed = 0:0:01:43 / Fri Aug 15 13:41:10 2014
GPGPU-Sim PTX: 11400000 instructions simulated : ctaid=(246,0,0) tid=(224,0,0)
GPGPU-Sim uArch: cycles simulated: 48500  inst.: 11114132 (ipc=229.2) sim_rate=106866 (inst/sec) elapsed = 0:0:01:44 / Fri Aug 15 13:41:11 2014
GPGPU-Sim PTX: 11500000 instructions simulated : ctaid=(249,0,0) tid=(287,0,0)
GPGPU-Sim uArch: cycles simulated: 49000  inst.: 11213274 (ipc=228.8) sim_rate=106793 (inst/sec) elapsed = 0:0:01:45 / Fri Aug 15 13:41:12 2014
GPGPU-Sim PTX: 11600000 instructions simulated : ctaid=(268,0,0) tid=(314,0,0)
GPGPU-Sim PTX: 11700000 instructions simulated : ctaid=(269,0,0) tid=(426,0,0)
GPGPU-Sim uArch: cycles simulated: 50000  inst.: 11411518 (ipc=228.2) sim_rate=107655 (inst/sec) elapsed = 0:0:01:46 / Fri Aug 15 13:41:13 2014
GPGPU-Sim PTX: 11800000 instructions simulated : ctaid=(243,0,0) tid=(83,0,0)
GPGPU-Sim uArch: cycles simulated: 50500  inst.: 11478467 (ipc=227.3) sim_rate=107275 (inst/sec) elapsed = 0:0:01:47 / Fri Aug 15 13:41:14 2014
GPGPU-Sim uArch: Shader 9 finished CTA #1 (50760,0), 1 CTAs running
GPGPU-Sim uArch: core:  9, cta: 1 initialized @(50761,0)
GPGPU-Sim PTX: 11900000 instructions simulated : ctaid=(244,0,0) tid=(216,0,0)
GPGPU-Sim uArch: Shader 9 finished CTA #0 (50950,0), 1 CTAs running
GPGPU-Sim uArch: core:  9, cta: 0 initialized @(50951,0)
GPGPU-Sim uArch: cycles simulated: 51000  inst.: 11559265 (ipc=226.7) sim_rate=107030 (inst/sec) elapsed = 0:0:01:48 / Fri Aug 15 13:41:15 2014
GPGPU-Sim uArch: Shader 1 finished CTA #0 (51282,0), 1 CTAs running
GPGPU-Sim uArch: core:  1, cta: 0 initialized @(51283,0)
GPGPU-Sim uArch: Shader 1 finished CTA #1 (51374,0), 1 CTAs running
GPGPU-Sim uArch: core:  1, cta: 1 initialized @(51375,0)
GPGPU-Sim PTX: 12000000 instructions simulated : ctaid=(266,0,0) tid=(310,0,0)
[...]
dq_lat_table:0 	0 	0 	0 	0 	0 	0 	0 	0 	0 	0 	0 	0 	0 	0 	0 	0 	0 	0 	0 	0 	0 	0 	0 	0 	0 	0 	0 	0 	0 	0 	0 	
mf_lat_table:0 	0 	0 	0 	0 	0 	0 	549222 	490652 	767 	0 	0 	0 	0 	0 	0 	0 	0 	0 	0 	0 	0 	0 	0 	0 	0 	0 	0 	0 	0 	0 	0 	
icnt2mem_lat_table:0 	0 	0 	784127 	234156 	21800 	533 	211 	9 	0 	0 	0 	0 	0 	0 	0 	0 	0 	0 	0 	0 	0 	0 	0 	
icnt2sh_lat_table:0 	0 	0 	146090 	251038 	324319 	201341 	7853 	0 	0 	0 	120 	180 	485 	878 	1741 	3529 	7133 	14175 	28295 	51556 	1908 	0 	0 	
mf_lat_pw_table:0 	0 	0 	0 	0 	0 	0 	2750 	1521 	0 	0 	0 	0 	0 	0 	0 	0 	0 	0 	0 	0 	0 	0 	0 	0 	0 	0 	0 	0 	0 	0 	0 	
maximum concurrent accesses to same row:
dram[0]:         6         5         6         5        12        10        20        14         8         7         5         6        10         7        10         5 
dram[1]:         5         5         5         6        11        12        21        21         8        10         7         5        10         9         5         5 
dram[2]:         5         5         7         6        11        11        16        19         7        10         5         5        10         6         5         5 
dram[3]:         6         5         5         6        14        11        21        17        10        10         6         7        10         7         7         5 
dram[4]:         5         6         6         5         8        10        15        21         6        10         5         7         8         6         5         5 
dram[5]:         6         7         6         5        10        13        17        19         5         8         5         5         7        10         5         7 
maximum service time to same row:
dram[0]:      7940      7447      9029      6116     12712      8753      6011      6499      7927      7731      8605     13240      8637      8163      8346      7809 
dram[1]:      7757      8648      9163      6620      8716     10979      8200      6289      7331      6906      9657     12058      8887      9955     10004      7275 
dram[2]:      9900      7608      6848      9606      7917      9377      8052      9247      6707      7638      7329     11595      7877      7076      7981      9282 
dram[3]:      6609     10162      8822      9649      7534      8023      6093      5985      7733      7477      7906     12248     10119      7662      7275      8904 
dram[4]:      7945      7022      7121      9891      8683      8022      8222      6922      6803      7314     10012     11996      9883      9151      7405      9503 
dram[5]:      8772      7472      8128     10031      8386     10443     11358      8806      8650      6960      8544     12246      7234      8034      8203      6728 
average row accesses per activate:
dram[0]:  1.857336  1.869919  1.826915  1.851190  1.812062  1.830920  1.767209  1.786546  1.825124  1.807146  1.798350  1.799559  1.878618  1.864477  1.871087  1.858428 
dram[1]:  1.834921  1.820163  1.860027  1.815032  1.801097  1.803092  1.790055  1.769593  1.851592  1.834025  1.787506  1.834607  1.839946  1.866856  1.846360  1.831241 
dram[2]:  1.828480  1.840753  1.870236  1.851054  1.831545  1.827381  1.760759  1.790738  1.842299  1.830846  1.795807  1.830832  1.863309  1.856408  1.841821  1.827824 
dram[3]:  1.848696  1.870243  1.840637  1.841671  1.816863  1.844041  1.781681  1.800256  1.849512  1.866152  1.799370  1.806524  1.855928  1.852778  1.858435  1.851595 
dram[4]:  1.837068  1.846679  1.882627  1.853144  1.824723  1.833489  1.781570  1.783389  1.820916  1.866213  1.820386  1.813388  1.846604  1.868030  1.839473  1.858867 
dram[5]:  1.847506  1.872167  1.862037  1.827088  1.826269  1.848053  1.780822  1.779926  1.849315  1.829170  1.786985  1.790528  1.853102  1.855909  1.854323  1.890353 
average row locality = 387746/211700 = 1.831582
number of total memory accesses made:
dram[0]:         0         0         0         0         0         0         0         0         0         0         0         0         0         0         0         0 
dram[1]:         0         0         0         0         0         0         0         0         0         0         0         0         0         0         0         0 
dram[2]:         0         0         0         0         0         0         0         0         0         0         0         0         0         0         0         0 
dram[3]:         0         0         0         0         0         0         0         0         0         0         0         0         0         0         0         0 
dram[4]:         0         0         0         0         0         0         0         0         0         0         0         0         0         0         0         0 
dram[5]:         0         0         0         0         0         0         0         0         0         0         0         0         0         0         0         0 
total accesses: 0
min_bank_accesses = 0!
min_chip_accesses = 0!
number of total read accesses:
dram[0]:      4033      3822      4127      4043      3872      3914      4176      4083      3910      3813      3852      4008      3896      3903      3976      3850 
dram[1]:      3951      3918      4146      4033      3935      3959      4152      4072      3830      3833      3846      4010      3959      3829      4045      3874 
dram[2]:      3917      3916      4122      4039      3921      3985      4113      4039      3873      3903      3868      3957      4013      3853      4005      3919 
dram[3]:      3867      3986      4158      4013      4002      3955      4200      4167      3855      3970      3929      3972      4030      3876      4028      3938 
dram[4]:      3830      3974      4042      4038      3950      3925      4116      4213      3817      3968      3985      3884      3993      3893      3969      3939 
dram[5]:      3796      4045      3968      4047      3915      3886      4100      4265      3776      3965      4049      3866      3939      3951      3856      3944 
total reads: 380963
bank skew: 4265/3776 = 1.13
chip skew: 63946/63278 = 1.01
number of total write accesses:
dram[0]:        94        88         0         0         4         6        60        60       129       132        72        68       128       128        88        75 
dram[1]:        95        90         0         0         4         6        60        60       125       145        74        72       122       125        89        65 
dram[2]:       102        95         0         0         4         6        60        60       134       145        72        69       131       116        82        62 
dram[3]:       104        93         0         0         6         6        60        60       127       143        71        71       118       126        81        67 
dram[4]:       105        85         0         0         6         6        60        60       118       147        69        71       112       127        76        65 
dram[5]:        93        85         0         0         6         6        60        62       139       136        70        66       123       132        90        73 
total reads: 6783
min_bank_accesses = 0!
chip skew: 1141/1107 = 1.03
average mf latency per bank:
dram[0]:        395       399       350       352      1253      1091      1309      1323       503       503       527       523       471       475       442       450
dram[1]:        397       400       353       356      1113      1314      1317      1499       509       513       524       525       472       483       441       461
dram[2]:        398       397       353       360      1114      1545      1331      1390       506       506       526       532       471       476       449       455
dram[3]:        396       403       353       358      1279      1443      1433      1364       504       508       529       532       473       480       455       452
dram[4]:        390       403       348       357      1050      1458      1283      1363       499       504       517       540       459       483       439       460
dram[5]:        393       397       350       358      1070      1529      1301      1392       502       508       516       539       470       476       442       462
maximum mf latency per bank:
dram[0]:        594       520       571       523       540       613       627       525       598       508       608       572       540       627       569       558
dram[1]:        567       533       647       523       666       555       618       557       530       539       578       541       581       570       541       524
dram[2]:        568       575       538       521       584       556       559       646       533       526       548       636       535       529       577       533
dram[3]:        564       543       529       523       616       572       587       601       537       559       570       546       507       538       543       575
dram[4]:        531       607       526       588       525       580       503       605       519       526       516       557       529       603       532       550
dram[5]:        510       623       533       591       631       582       643       598       542       552       515       515       542       577       535       546

Number of Memory Banks Accessed per Memory Operation per Warp (from 0):
0	0	0	0	0	0	0	0	0	0	0	0	0	0	0	0	0	0	0	0	0	0	0	0	0	0	0	0	0	0	0	0	0	0	0	0	0	0	0	0	0	0	0	0	0	0	0	0	0	0	0	0	0	0	0	0	0	0	0	0	0	0	0	0	0	0	0	0	0	0	0	0	0	0	0	0	0	0	0	0	0	0	0	0	0	0	0	0	0	0	0	0	0	0	0	0	
Average # of Memory Banks Accessed per Memory Operation per Warp=-nan

position of mrq chosen
0	0	0	0	0	0	0	0	0	0	0	0	0	0	0	0	

average position of mrq chosen = -nan
Memory Partition 0: 
Cache L2_bank_000:
MSHR contents

Cache L2_bank_001:
MSHR contents

In Dram Latency Queue (total = 0): 
DRAM[0]: 16 bks, busW=4 BL=8 CL=12, tRRD=2 tCCD=6, tRCD=12 tRAS=28 tRP=12 tRC=40
n_cmd=2820848 n_nop=2622244 n_act=35184 n_pre=35168 n_req=64410 n_rd=126556 n_write=1696 bw_util=0.09093
n_activity=1225931 dram_eff=0.2092
bk0: 8066a 2742194i bk1: 7644a 2746013i bk2: 8254a 2741066i bk3: 8086a 2743027i bk4: 7744a 2745372i bk5: 7828a 2745278i bk6: 8352a 2736185i bk7: 8166a 2737953i bk8: 7820a 2741751i bk9: 7626a 2742799i bk10: 7704a 2743340i bk11: 8016a 2740121i bk12: 7792a 2743285i bk13: 7806a 2742485i bk14: 7952a 2743067i bk15: 7700a 2745240i 
dram_util_bins: 0 0 0 0 0 0 0 0 0 0
dram_eff_bins: 0 0 0 0 0 0 0 0 0 0
mrqq: max=12 avg=0.190177
Memory Partition 1: 
Cache L2_bank_002:
MSHR contents

Cache L2_bank_003:
MSHR contents

In Dram Latency Queue (total = 0): 
DRAM[1]: 16 bks, busW=4 BL=8 CL=12, tRRD=2 tCCD=6, tRCD=12 tRAS=28 tRP=12 tRC=40
n_cmd=2820848 n_nop=2621622 n_act=35381 n_pre=35365 n_req=64524 n_rd=126784 n_write=1696 bw_util=0.09109
n_activity=1233000 dram_eff=0.2084
bk0: 7902a 2742376i bk1: 7836a 2742831i bk2: 8292a 2741536i bk3: 8066a 2742367i bk4: 7870a 2743899i bk5: 7918a 2743366i bk6: 8304a 2737201i bk7: 8144a 2737822i bk8: 7660a 2744219i bk9: 7666a 2743383i bk10: 7692a 2742588i bk11: 8020a 2740888i bk12: 7918a 2740866i bk13: 7658a 2743977i bk14: 8090a 2740606i bk15: 7748a 2743994i 
dram_util_bins: 0 0 0 0 0 0 0 0 0 0
dram_eff_bins: 0 0 0 0 0 0 0 0 0 0
mrqq: max=11 avg=0.189223
Memory Partition 2: 
Cache L2_bank_004:
MSHR contents

Cache L2_bank_005:
MSHR contents

In Dram Latency Queue (total = 0): 
DRAM[2]: 16 bks, busW=4 BL=8 CL=12, tRRD=2 tCCD=6, tRCD=12 tRAS=28 tRP=12 tRC=40
n_cmd=2820848 n_nop=2621703 n_act=35287 n_pre=35271 n_req=64581 n_rd=126886 n_write=1701 bw_util=0.09117
n_activity=1225111 dram_eff=0.2099
bk0: 7834a 2742709i bk1: 7832a 2743561i bk2: 8244a 2742221i bk3: 8078a 2743152i bk4: 7842a 2744636i bk5: 7970a 2743456i bk6: 8226a 2736752i bk7: 8078a 2738792i bk8: 7746a 2742622i bk9: 7806a 2741641i bk10: 7736a 2743068i bk11: 7914a 2741953i bk12: 8026a 2740838i bk13: 7706a 2744100i bk14: 8010a 2741034i bk15: 7838a 2743216i 
dram_util_bins: 0 0 0 0 0 0 0 0 0 0
dram_eff_bins: 0 0 0 0 0 0 0 0 0 0
mrqq: max=14 avg=0.191232
Memory Partition 3: 
Cache L2_bank_006:
MSHR contents

Cache L2_bank_007:
MSHR contents

In Dram Latency Queue (total = 0): 
DRAM[3]: 16 bks, busW=4 BL=8 CL=12, tRRD=2 tCCD=6, tRCD=12 tRAS=28 tRP=12 tRC=40
n_cmd=2820848 n_nop=2620380 n_act=35447 n_pre=35431 n_req=65079 n_rd=127892 n_write=1698 bw_util=0.09188
n_activity=1231150 dram_eff=0.2105
bk0: 7734a 2744854i bk1: 7972a 2743352i bk2: 8316a 2740828i bk3: 8026a 2743589i bk4: 8004a 2743073i bk5: 7910a 2744357i bk6: 8400a 2736064i bk7: 8334a 2736545i bk8: 7710a 2743653i bk9: 7940a 2742060i bk10: 7858a 2741612i bk11: 7944a 2741168i bk12: 8060a 2740753i bk13: 7752a 2742816i bk14: 8056a 2741211i bk15: 7876a 2742512i 
dram_util_bins: 0 0 0 0 0 0 0 0 0 0
dram_eff_bins: 0 0 0 0 0 0 0 0 0 0
mrqq: max=14 avg=0.191074
Memory Partition 4: 
Cache L2_bank_008:
MSHR contents

Cache L2_bank_009:
MSHR contents

In Dram Latency Queue (total = 0): 
DRAM[4]: 16 bks, busW=4 BL=8 CL=12, tRRD=2 tCCD=6, tRCD=12 tRAS=28 tRP=12 tRC=40
n_cmd=2820848 n_nop=2621680 n_act=35220 n_pre=35204 n_req=64643 n_rd=127072 n_write=1672 bw_util=0.09128
n_activity=1227340 dram_eff=0.2098
bk0: 7660a 2744474i bk1: 7948a 2742180i bk2: 8084a 2744199i bk3: 8076a 2743469i bk4: 7900a 2744324i bk5: 7850a 2745131i bk6: 8232a 2737821i bk7: 8426a 2735041i bk8: 7634a 2743734i bk9: 7936a 2741671i bk10: 7970a 2741518i bk11: 7768a 2742684i bk12: 7986a 2741173i bk13: 7786a 2742731i bk14: 7938a 2741676i bk15: 7878a 2743219i 
dram_util_bins: 0 0 0 0 0 0 0 0 0 0
dram_eff_bins: 0 0 0 0 0 0 0 0 0 0
mrqq: max=13 avg=0.191743
Memory Partition 5: 
Cache L2_bank_010:
MSHR contents

Cache L2_bank_011:
MSHR contents

In Dram Latency Queue (total = 0): 
DRAM[5]: 16 bks, busW=4 BL=8 CL=12, tRRD=2 tCCD=6, tRCD=12 tRAS=28 tRP=12 tRC=40
n_cmd=2820848 n_nop=2622058 n_act=35182 n_pre=35166 n_req=64509 n_rd=126736 n_write=1706 bw_util=0.09107
n_activity=1230139 dram_eff=0.2088
bk0: 7592a 2746127i bk1: 8090a 2742135i bk2: 7936a 2745300i bk3: 8094a 2742563i bk4: 7830a 2744625i bk5: 7772a 2746200i bk6: 8200a 2738546i bk7: 8530a 2734210i bk8: 7552a 2744773i bk9: 7930a 2740843i bk10: 8098a 2738880i bk11: 7732a 2742482i bk12: 7878a 2741988i bk13: 7902a 2741364i bk14: 7712a 2744573i bk15: 7888a 2744260i 
dram_util_bins: 0 0 0 0 0 0 0 0 0 0
dram_eff_bins: 0 0 0 0 0 0 0 0 0 0
mrqq: max=10 avg=0.190324

========= L2 cache stats =========
L2_cache_bank[0]: Access = 85985, Miss = 31842, Miss_rate = 0.370, Pending_hits = 405, Reservation_fails = 1727
L2_cache_bank[1]: Access = 81664, Miss = 31436, Miss_rate = 0.385, Pending_hits = 422, Reservation_fails = 819
L2_cache_bank[2]: Access = 82622, Miss = 31864, Miss_rate = 0.386, Pending_hits = 472, Reservation_fails = 1378
L2_cache_bank[3]: Access = 89981, Miss = 31528, Miss_rate = 0.350, Pending_hits = 438, Reservation_fails = 1171
L2_cache_bank[4]: Access = 82446, Miss = 31832, Miss_rate = 0.386, Pending_hits = 447, Reservation_fails = 1060
L2_cache_bank[5]: Access = 91941, Miss = 31611, Miss_rate = 0.344, Pending_hits = 414, Reservation_fails = 726
L2_cache_bank[6]: Access = 90400, Miss = 32069, Miss_rate = 0.355, Pending_hits = 436, Reservation_fails = 1398
L2_cache_bank[7]: Access = 89240, Miss = 31877, Miss_rate = 0.357, Pending_hits = 442, Reservation_fails = 1103
L2_cache_bank[8]: Access = 82412, Miss = 31702, Miss_rate = 0.385, Pending_hits = 403, Reservation_fails = 1001
L2_cache_bank[9]: Access = 89356, Miss = 31834, Miss_rate = 0.356, Pending_hits = 404, Reservation_fails = 739
L2_cache_bank[10]: Access = 81628, Miss = 31399, Miss_rate = 0.385, Pending_hits = 427, Reservation_fails = 1443
L2_cache_bank[11]: Access = 93161, Miss = 31969, Miss_rate = 0.343, Pending_hits = 455, Reservation_fails = 1371
L2_total_cache_accesses = 1040836
L2_total_cache_misses = 380963
L2_total_cache_miss_rate = 0.3660
L2_total_cache_pending_hits = 5165
L2_total_cache_reservation_fails = 13936
L2_total_cache_breakdown:
	L2_cache_stats_breakdown[GLOBAL_ACC_R][HIT] = 547934
	L2_cache_stats_breakdown[GLOBAL_ACC_R][HIT_RESERVED] = 3167
	L2_cache_stats_breakdown[GLOBAL_ACC_R][MISS] = 379510
	L2_cache_stats_breakdown[GLOBAL_ACC_R][RESERVATION_FAIL] = 5096
	L2_cache_stats_breakdown[CONST_ACC_R][HIT] = 26
	L2_cache_stats_breakdown[CONST_ACC_R][HIT_RESERVED] = 3
	L2_cache_stats_breakdown[CONST_ACC_R][MISS] = 1
	L2_cache_stats_breakdown[CONST_ACC_R][RESERVATION_FAIL] = 100
	L2_cache_stats_breakdown[GLOBAL_ACC_W][HIT] = 106603
	L2_cache_stats_breakdown[GLOBAL_ACC_W][HIT_RESERVED] = 1958
	L2_cache_stats_breakdown[GLOBAL_ACC_W][MISS] = 1439
	L2_cache_stats_breakdown[GLOBAL_ACC_W][RESERVATION_FAIL] = 7834
	L2_cache_stats_breakdown[INST_ACC_R][HIT] = 145
	L2_cache_stats_breakdown[INST_ACC_R][HIT_RESERVED] = 37
	L2_cache_stats_breakdown[INST_ACC_R][MISS] = 13
	L2_cache_stats_breakdown[INST_ACC_R][RESERVATION_FAIL] = 906
L2_cache_data_port_util = 0.090
L2_cache_fill_port_util = 0.059

icnt_total_pkts_mem_to_simt=4764120
icnt_total_pkts_simt_to_mem=1150836
LD_mem_lat_dist  0 0 0 0 0 0 0 0 0 0 0 0 0 0 0 0 0 0 0 0 0 0 0 0 0 0 0
ST_mem_lat_dist  0 0 0 0 0 0 0 0 0 0 0 0 0 0 0 0 0 0 0 0 0 0 0 0 0 0 0
----------------------------Interconnect-DETAILS--------------------------------
Class 0:
Packet latency average = 24.8196
	minimum = 6
	maximum = 200
Network latency average = 19.9688
	minimum = 6
	maximum = 150
Slowest packet = 1035112
Flit latency average = 21.4152
	minimum = 6
	maximum = 150
Slowest flit = 2924214
Fragmentation average = 2.38353e-05
	minimum = 0
	maximum = 25
Injected packet rate average = 0.0379837
	minimum = 0.033705 (at node 9)
	maximum = 0.0469236 (at node 15)
Accepted packet rate average = 0.0379837
	minimum = 0.033705 (at node 9)
	maximum = 0.0469236 (at node 15)
Injected flit rate average = 0.108519
	minimum = 0.0369561 (at node 9)
	maximum = 0.218348 (at node 15)
Accepted flit rate average= 0.108519
	minimum = 0.040747 (at node 25)
	maximum = 0.161221 (at node 1)
Injected packet length average = 2.85699
Accepted packet length average = 2.85699
Total in-flight flits = 0 (0 measured)
====== Overall Traffic Statistics ======
====== Traffic class 0 ======
Packet latency average = 25.2119 (2 samples)
	minimum = 6 (2 samples)
	maximum = 185.5 (2 samples)
Network latency average = 20.3238 (2 samples)
	minimum = 6 (2 samples)
	maximum = 148.5 (2 samples)
Flit latency average = 21.8369 (2 samples)
	minimum = 6 (2 samples)
	maximum = 146.5 (2 samples)
Fragmentation average = 8.69559e-05 (2 samples)
	minimum = 0 (2 samples)
	maximum = 62 (2 samples)
Injected packet rate average = 0.0361563 (2 samples)
	minimum = 0.0320753 (2 samples)
	maximum = 0.044531 (2 samples)
Accepted packet rate average = 0.0361563 (2 samples)
	minimum = 0.0320753 (2 samples)
	maximum = 0.044531 (2 samples)
Injected flit rate average = 0.10276 (2 samples)
	minimum = 0.0354778 (2 samples)
	maximum = 0.20556 (2 samples)
Accepted flit rate average = 0.10276 (2 samples)
	minimum = 0.0394405 (2 samples)
	maximum = 0.153169 (2 samples)
Injected packet size average = 2.84212 (2 samples)
Accepted packet size average = 2.84212 (2 samples)
Hops average = 1 (2 samples)
----------------------------END-of-Interconnect-DETAILS-------------------------


gpgpu_simulation_time = 0 days, 0 hrs, 41 min, 36 sec (2496 sec)
gpgpu_simulation_rate = 217271 (inst/sec)
gpgpu_simulation_rate = 856 (cycle/sec)
GPGPU-Sim: synchronize waiting for inactive GPU simulation
GPGPU-Sim API: Stream Manager State
GPGPU-Sim: detected inactive GPU simulation thread
Time spent in different stages of GPU_CUDA KERNEL:
 0.000022000000 s,  0.000002192432 % : GPU: SET DEVICE / DRIVER INIT
 0.000002000000 s,  0.000000199312 % : GPU MEM: ALO
 0.716717004776 s,  0.071425154805 % : GPU MEM: COPY IN
1002.733398437500 s, 99.928405761719 % : GPU: KERNEL
 0.001736999955 s,  0.000173102482 % : GPU MEM: COPY OUT
 0.000000000000 s,  0.000000000000 % : GPU MEM: FRE
Total time:
1003.451843261719 s
> > > > > > > > > > 
