

        *** GPGPU-Sim Simulator Version 3.2.2  [build 17315] ***


GPGPU-Sim PTX: simulation mode 0 (can change with PTX_SIM_MODE_FUNC environment variable:
               1=functional simulation only, 0=detailed performance simulator)
GPGPU-Sim: Configuration options:

-network_mode                           1 # Interconnection network mode
-inter_config_file   config_fermi_islip.icnt # Interconnection network config file
-gpgpu_ptx_use_cuobjdump                    1 # Use cuobjdump to extract ptx and sass from binaries
-gpgpu_experimental_lib_support                    0 # Try to extract code from cuda libraries [Broken because of unknown cudaGetExportTable]
-gpgpu_ptx_convert_to_ptxplus                    0 # Convert SASS (native ISA) to ptxplus and run ptxplus
-gpgpu_ptx_force_max_capability                   20 # Force maximum compute capability
-gpgpu_ptx_inst_debug_to_file                    0 # Dump executed instructions' debug information to file
-gpgpu_ptx_inst_debug_file       inst_debug.txt # Executed instructions' debug output file
-gpgpu_ptx_inst_debug_thread_uid                    1 # Thread UID for executed instructions' debug output
-gpgpu_simd_model                       1 # 1 = post-dominator
-gpgpu_shader_core_pipeline              1536:32 # shader core pipeline config, i.e., {<nthread>:<warpsize>}
-gpgpu_tex_cache:l1  4:128:24,L:R:m:N,F:128:4,128:2 # per-shader L1 texture cache  (READ-ONLY) config  {<nsets>:<bsize>:<assoc>,<rep>:<wr>:<alloc>:<wr_alloc>,<mshr>:<N>:<merge>,<mq>:<rf>}
-gpgpu_const_cache:l1 64:64:2,L:R:f:N,A:2:32,4 # per-shader L1 constant memory cache  (READ-ONLY) config  {<nsets>:<bsize>:<assoc>,<rep>:<wr>:<alloc>:<wr_alloc>,<mshr>:<N>:<merge>,<mq>} 
-gpgpu_cache:il1     4:128:4,L:R:f:N,A:2:32,4 # shader L1 instruction cache config  {<nsets>:<bsize>:<assoc>,<rep>:<wr>:<alloc>:<wr_alloc>,<mshr>:<N>:<merge>,<mq>} 
-gpgpu_cache:dl1     32:128:4,F:L:m:N,A:32:8,8 # per-shader L1 data cache config  {<nsets>:<bsize>:<assoc>,<rep>:<wr>:<alloc>:<wr_alloc>,<mshr>:<N>:<merge>,<mq> | none}
-gpgpu_cache:dl1PrefL1                 none # per-shader L1 data cache config  {<nsets>:<bsize>:<assoc>,<rep>:<wr>:<alloc>:<wr_alloc>,<mshr>:<N>:<merge>,<mq> | none}
-gpgpu_cache:dl1PreShared                 none # per-shader L1 data cache config  {<nsets>:<bsize>:<assoc>,<rep>:<wr>:<alloc>:<wr_alloc>,<mshr>:<N>:<merge>,<mq> | none}
-gmem_skip_L1D                          0 # global memory access skip L1D cache (implements -Xptxas -dlcm=cg, default=no skip)
-gpgpu_perfect_mem                      0 # enable perfect memory mode (no cache miss)
-n_regfile_gating_group                    4 # group of lanes that should be read/written together)
-gpgpu_clock_gated_reg_file                    0 # enable clock gated reg file for power calculations
-gpgpu_clock_gated_lanes                    0 # enable clock gated lanes for power calculations
-gpgpu_shader_registers                32768 # Number of registers per shader core. Limits number of concurrent CTAs. (default 8192)
-gpgpu_shader_cta                       8 # Maximum number of concurrent CTAs in shader (default 8)
-gpgpu_n_clusters                      15 # number of processing clusters
-gpgpu_n_cores_per_cluster                    1 # number of simd cores per cluster
-gpgpu_n_cluster_ejection_buffer_size                    8 # number of packets in ejection buffer
-gpgpu_n_ldst_response_buffer_size                    2 # number of response packets in ld/st unit ejection buffer
-gpgpu_shmem_size                   16384 # Size of shared memory per shader core (default 16kB)
-gpgpu_shmem_size                   49152 # Size of shared memory per shader core (default 16kB)
-gpgpu_shmem_size_PrefL1                16384 # Size of shared memory per shader core (default 16kB)
-gpgpu_shmem_size_PrefShared                16384 # Size of shared memory per shader core (default 16kB)
-gpgpu_shmem_num_banks                   32 # Number of banks in the shared memory in each shader core (default 16)
-gpgpu_shmem_limited_broadcast                    0 # Limit shared memory to do one broadcast per cycle (default on)
-gpgpu_shmem_warp_parts                    1 # Number of portions a warp is divided into for shared memory bank conflict check 
-gpgpu_warpdistro_shader                   -1 # Specify which shader core to collect the warp size distribution from
-gpgpu_warp_issue_shader                    0 # Specify which shader core to collect the warp issue distribution from
-gpgpu_local_mem_map                    1 # Mapping from local memory space address to simulated GPU physical address space (default = enabled)
-gpgpu_num_reg_banks                   16 # Number of register banks (default = 8)
-gpgpu_reg_bank_use_warp_id                    0 # Use warp ID in mapping registers to banks (default = off)
-gpgpu_operand_collector_num_units_sp                    6 # number of collector units (default = 4)
-gpgpu_operand_collector_num_units_sfu                    8 # number of collector units (default = 4)
-gpgpu_operand_collector_num_units_mem                    2 # number of collector units (default = 2)
-gpgpu_operand_collector_num_units_gen                    0 # number of collector units (default = 0)
-gpgpu_operand_collector_num_in_ports_sp                    2 # number of collector unit in ports (default = 1)
-gpgpu_operand_collector_num_in_ports_sfu                    1 # number of collector unit in ports (default = 1)
-gpgpu_operand_collector_num_in_ports_mem                    1 # number of collector unit in ports (default = 1)
-gpgpu_operand_collector_num_in_ports_gen                    0 # number of collector unit in ports (default = 0)
-gpgpu_operand_collector_num_out_ports_sp                    2 # number of collector unit in ports (default = 1)
-gpgpu_operand_collector_num_out_ports_sfu                    1 # number of collector unit in ports (default = 1)
-gpgpu_operand_collector_num_out_ports_mem                    1 # number of collector unit in ports (default = 1)
-gpgpu_operand_collector_num_out_ports_gen                    0 # number of collector unit in ports (default = 0)
-gpgpu_coalesce_arch                   13 # Coalescing arch (default = 13, anything else is off for now)
-gpgpu_num_sched_per_core                    2 # Number of warp schedulers per core
-gpgpu_max_insn_issue_per_warp                    1 # Max number of instructions that can be issued per warp in one cycle by scheduler
-gpgpu_simt_core_sim_order                    1 # Select the simulation order of cores in a cluster (0=Fix, 1=Round-Robin)
-gpgpu_pipeline_widths        2,1,1,2,1,1,2 # Pipeline widths ID_OC_SP,ID_OC_SFU,ID_OC_MEM,OC_EX_SP,OC_EX_SFU,OC_EX_MEM,EX_WB
-gpgpu_num_sp_units                     2 # Number of SP units (default=1)
-gpgpu_num_sfu_units                    1 # Number of SF units (default=1)
-gpgpu_num_mem_units                    1 # Number if ldst units (default=1) WARNING: not hooked up to anything
-gpgpu_scheduler                      lrr # Scheduler configuration: < lrr | gto | two_level_active > If two_level_active:<num_active_warps>:<inner_prioritization>:<outer_prioritization>For complete list of prioritization values see shader.h enum scheduler_prioritization_typeDefault: gto
-gpgpu_dram_scheduler                    1 # 0 = fifo, 1 = FR-FCFS (defaul)
-gpgpu_dram_partition_queues              8:8:8:8 # i2$:$2d:d2$:$2i
-l2_ideal                               0 # Use a ideal L2 cache that always hit
-gpgpu_cache:dl2     64:128:8,L:B:m:W,A:32:4,4:0,32 # unified banked L2 data cache config  {<nsets>:<bsize>:<assoc>,<rep>:<wr>:<alloc>:<wr_alloc>,<mshr>:<N>:<merge>,<mq>}
-gpgpu_cache:dl2_texture_only                    0 # L2 cache used for texture only
-gpgpu_n_mem                            6 # number of memory modules (e.g. memory controllers) in gpu
-gpgpu_n_sub_partition_per_mchannel                    2 # number of memory subpartition in each memory module
-gpgpu_n_mem_per_ctrlr                    2 # number of memory chips per memory controller
-gpgpu_memlatency_stat                   14 # track and display latency statistics 0x2 enables MC, 0x4 enables queue logs
-gpgpu_frfcfs_dram_sched_queue_size                   16 # 0 = unlimited (default); # entries per chip
-gpgpu_dram_return_queue_size                  116 # 0 = unlimited (default); # entries per chip
-gpgpu_dram_buswidth                    4 # default = 4 bytes (8 bytes per cycle at DDR)
-gpgpu_dram_burst_length                    8 # Burst length of each DRAM request (default = 4 data bus cycle)
-dram_data_command_freq_ratio                    4 # Frequency ratio between DRAM data bus and command bus (default = 2 times, i.e. DDR)
-gpgpu_dram_timing_opt nbk=16:CCD=2:RRD=6:RCD=12:RAS=28:RP=12:RC=40: CL=12:WL=4:CDLR=5:WR=12:nbkgrp=4:CCDL=3:RTPL=2 # DRAM timing parameters = {nbk:tCCD:tRRD:tRCD:tRAS:tRP:tRC:CL:WL:tCDLR:tWR:nbkgrp:tCCDL:tRTPL}
-rop_latency                          120 # ROP queue latency (default 85)
-dram_latency                         100 # DRAM latency (default 30)
-gpgpu_mem_addr_mapping dramid@8;00000000.00000000.00000000.00000000.0000RRRR.RRRRRRRR.BBBCCCCB.CCSSSSSS # mapping memory address to dram model {dramid@<start bit>;<memory address map>}
-gpgpu_mem_addr_test                    0 # run sweep test to check address mapping for aliased address
-gpgpu_mem_address_mask                    1 # 0 = old addressing mask, 1 = new addressing mask, 2 = new add. mask + flipped bank sel and chip sel bits
-gpuwattch_xml_file  gpuwattch_gtx480.xml # GPUWattch XML file
-power_simulation_enabled                    1 # Turn on power simulator (1=On, 0=Off)
-power_per_cycle_dump                    0 # Dump detailed power output each cycle
-power_trace_enabled                    0 # produce a file for the power trace (1=On, 0=Off)
-power_trace_zlevel                     6 # Compression level of the power trace output log (0=no comp, 9=highest)
-steady_power_levels_enabled                    0 # produce a file for the steady power levels (1=On, 0=Off)
-steady_state_definition                  8:4 # allowed deviation:number of samples
-gpgpu_max_cycle                        0 # terminates gpu simulation early (0 = no limit)
-gpgpu_max_insn                         0 # terminates gpu simulation early (0 = no limit)
-gpgpu_max_cta                          0 # terminates gpu simulation early (0 = no limit)
-gpgpu_runtime_stat                   500 # display runtime statistics such as dram utilization {<freq>:<flag>}
-liveness_message_freq                    1 # Minimum number of seconds between simulation liveness messages (0 = always print)
-gpgpu_flush_l1_cache                    0 # Flush L1 cache at the end of each kernel call
-gpgpu_flush_l2_cache                    0 # Flush L2 cache at the end of each kernel call
-gpgpu_deadlock_detect                    1 # Stop the simulation at deadlock (1=on (default), 0=off)
-gpgpu_ptx_instruction_classification                    0 # if enabled will classify ptx instruction types per kernel (Max 255 kernels now)
-gpgpu_ptx_sim_mode                     0 # Select between Performance (default) or Functional simulation (1)
-gpgpu_clock_domains 700.0:700.0:700.0:924.0 # Clock Domain Frequencies in MhZ {<Core Clock>:<ICNT Clock>:<L2 Clock>:<DRAM Clock>}
-gpgpu_max_concurrent_kernel                    8 # maximum kernels that can run concurrently on GPU
-gpgpu_cflog_interval                    0 # Interval between each snapshot in control flow logger
-visualizer_enabled                     0 # Turn on visualizer output (1=On, 0=Off)
-visualizer_outputfile                 NULL # Specifies the output log file for visualizer
-visualizer_zlevel                      6 # Compression level of the visualizer output log (0=no comp, 9=highest)
-trace_enabled                          0 # Turn on traces
-trace_components                    none # comma seperated list of traces to enable. Complete list found in trace_streams.tup. Default none
-trace_sampling_core                    0 # The core which is printed using CORE_DPRINTF. Default 0
-trace_sampling_memory_partition                   -1 # The memory partition which is printed using MEMPART_DPRINTF. Default -1 (i.e. all)
-enable_ptx_file_line_stats                    1 # Turn on PTX source line statistic profiling. (1 = On)
-ptx_line_stats_filename gpgpu_inst_stats.txt # Output file for PTX source line statistics.
-save_embedded_ptx                      0 # saves ptx files embedded in binary as <n>.ptx
-keep                                   0 # keep intermediate files created by GPGPU-Sim when interfacing with external programs
-gpgpu_ptx_save_converted_ptxplus                    0 # Saved converted ptxplus to a file
-ptx_opcode_latency_int         4,13,4,5,145 # Opcode latencies for integers <ADD,MAX,MUL,MAD,DIV>Default 1,1,19,25,145
-ptx_opcode_latency_fp          4,13,4,5,39 # Opcode latencies for single precision floating points <ADD,MAX,MUL,MAD,DIV>Default 1,1,1,1,30
-ptx_opcode_latency_dp         8,19,8,8,330 # Opcode latencies for double precision floating points <ADD,MAX,MUL,MAD,DIV>Default 8,8,8,8,335
-ptx_opcode_initiation_int            1,2,2,1,8 # Opcode initiation intervals for integers <ADD,MAX,MUL,MAD,DIV>Default 1,1,4,4,32
-ptx_opcode_initiation_fp            1,2,1,1,4 # Opcode initiation intervals for single precision floating points <ADD,MAX,MUL,MAD,DIV>Default 1,1,1,1,5
-ptx_opcode_initiation_dp         8,16,8,8,130 # Opcode initiation intervals for double precision floating points <ADD,MAX,MUL,MAD,DIV>Default 8,8,8,8,130
DRAM Timing Options:
nbk                                    16 # number of banks
CCD                                     2 # column to column delay
RRD                                     6 # minimal delay between activation of rows in different banks
RCD                                    12 # row to column delay
RAS                                    28 # time needed to activate row
RP                                     12 # time needed to precharge (deactivate) row
RC                                     40 # row cycle time
CDLR                                    5 # switching from write to read (changes tWTR)
WR                                     12 # last data-in to row precharge
CL                                     12 # CAS latency
WL                                      4 # Write latency
nbkgrp                                  4 # number of bank groups
CCDL                                    3 # column to column delay between accesses to different bank groups
RTPL                                    2 # read to precharge delay between accesses to different bank groups
Total number of memory sub partition = 12
addr_dec_mask[CHIP]  = 0000000000000000 	high:64 low:0
addr_dec_mask[BK]    = 000000000000e100 	high:16 low:8
addr_dec_mask[ROW]   = 000000000fff0000 	high:28 low:16
addr_dec_mask[COL]   = 0000000000001eff 	high:13 low:0
addr_dec_mask[BURST] = 000000000000003f 	high:6 low:0
sub_partition_id_mask = 0000000000000100
GPGPU-Sim uArch: clock freqs: 700000000.000000:700000000.000000:700000000.000000:924000000.000000
GPGPU-Sim uArch: clock periods: 0.00000000142857142857:0.00000000142857142857:0.00000000142857142857:0.00000000108225108225
*** Initializing Memory Statistics ***
GPGPU-Sim uArch: interconnect node map (shaderID+MemID to icntID)
GPGPU-Sim uArch: Memory nodes ID start from index: 15
GPGPU-Sim uArch:    0   1   2   3   4
GPGPU-Sim uArch:    5   6   7   8   9
GPGPU-Sim uArch:   10  11  12  13  14
GPGPU-Sim uArch:   15  16  17  18  19
GPGPU-Sim uArch:   20  21  22  23  24
GPGPU-Sim uArch:   25  26
GPGPU-Sim uArch: interconnect node reverse map (icntID to shaderID+MemID)
GPGPU-Sim uArch: Memory nodes start from ID: 15
GPGPU-Sim uArch:    0   1   2   3   4
GPGPU-Sim uArch:    5   6   7   8   9
GPGPU-Sim uArch:   10  11  12  13  14
GPGPU-Sim uArch:   15  16  17  18  19
GPGPU-Sim uArch:   20  21  22  23  24
GPGPU-Sim uArch:   25  26
5dfc00447550946b86c573f0833154d9  /home/xlxie/workdir_Aug1st_2014/bm/rodinia_2.4_sim_1.0/cuda/b+tree.tmp.2/b+tree.out
GPGPU-Sim uArch: performance model initialization complete.
GPGPU-Sim PTX: __cudaRegisterFatBinary, fat_cubin_handle = 1, filename=./kernel/kernel_gpu_cuda_wrapper.cu
self exe links to: /home/xlxie/workdir_Aug1st_2014/bm/rodinia_2.4_sim_1.0/cuda/b+tree.tmp.2/b+tree.out
Running md5sum using "md5sum /home/xlxie/workdir_Aug1st_2014/bm/rodinia_2.4_sim_1.0/cuda/b+tree.tmp.2/b+tree.out "
Running cuobjdump using "$CUDA_INSTALL_PATH/bin/cuobjdump -ptx -elf -sass /home/xlxie/workdir_Aug1st_2014/bm/rodinia_2.4_sim_1.0/cuda/b+tree.tmp.2/b+tree.out > _cuobjdump_complete_output_m2qHp9"
Parsing file _cuobjdump_complete_output_m2qHp9
######### cuobjdump parser ########
## Adding new section PTX
Adding ptx filename: _cuobjdump_1.ptx
Adding arch: sm_20
Adding identifier: ./kernel/kernel_gpu_cuda_wrapper.cu
## Adding new section PTX
Adding ptx filename: _cuobjdump_2.ptx
Adding arch: sm_20
Adding identifier: ./kernel/kernel_gpu_cuda_wrapper_2.cu
## Adding new section PTX
Adding ptx filename: _cuobjdump_3.ptx
Adding arch: sm_20
Adding identifier: ./util/cuda/cuda.cu
Done parsing!!!
GPGPU-Sim PTX: __cudaRegisterFunction findK : hostFun 0x0x405e20, fat_cubin_handle = 1
GPGPU-Sim PTX: instruction assembly for function 'findK'...   done.
GPGPU-Sim PTX: finding reconvergence points for 'findK'...
GPGPU-Sim PTX: Finding dominators for 'findK'...
GPGPU-Sim PTX: Finding immediate dominators for 'findK'...
GPGPU-Sim PTX: Finding postdominators for 'findK'...
GPGPU-Sim PTX: Finding immediate postdominators for 'findK'...
GPGPU-Sim PTX: pre-decoding instructions for 'findK'...
GPGPU-Sim PTX: reconvergence points for findK...
GPGPU-Sim PTX:  1 (potential) branch divergence @  PC=0x038 (_1.ptx:74) @%p1 bra $Lt_0_7682;
GPGPU-Sim PTX:    immediate post dominator      @  PC=0x1e8 (_1.ptx:141) ld.global.u64 %rd32, [%rd12+0];
GPGPU-Sim PTX:  2 (potential) branch divergence @  PC=0x0d0 (_1.ptx:96) @%p3 bra $Lt_0_7938;
GPGPU-Sim PTX:    immediate post dominator      @  PC=0x150 (_1.ptx:116) bar.sync 0;
GPGPU-Sim PTX:  3 (potential) branch divergence @  PC=0x0e8 (_1.ptx:99) @%p4 bra $Lt_0_7938;
GPGPU-Sim PTX:    immediate post dominator      @  PC=0x150 (_1.ptx:116) bar.sync 0;
GPGPU-Sim PTX:  4 (potential) branch divergence @  PC=0x140 (_1.ptx:110) @%p5 bra $Lt_0_7938;
GPGPU-Sim PTX:    immediate post dominator      @  PC=0x150 (_1.ptx:116) bar.sync 0;
GPGPU-Sim PTX:  5 (potential) branch divergence @  PC=0x158 (_1.ptx:117) @!%p2 bra $Lt_0_6402;
GPGPU-Sim PTX:    immediate post dominator      @  PC=0x180 (_1.ptx:125) bar.sync 0;
GPGPU-Sim PTX:  6 (potential) branch divergence @  PC=0x198 (_1.ptx:129) @%p6 bra $Lt_0_5634;
GPGPU-Sim PTX:    immediate post dominator      @  PC=0x1a0 (_1.ptx:130) bra.uni $Lt_0_5122;
GPGPU-Sim PTX:  7 (potential) branch divergence @  PC=0x1a0 (_1.ptx:130) bra.uni $Lt_0_5122;
GPGPU-Sim PTX:    immediate post dominator      @  PC=0x1e8 (_1.ptx:141) ld.global.u64 %rd32, [%rd12+0];
GPGPU-Sim PTX:  8 (potential) branch divergence @  PC=0x220 (_1.ptx:148) @%p7 bra $Lt_0_7170;
GPGPU-Sim PTX:    immediate post dominator      @  PC=0x270 (_1.ptx:161) exit;
GPGPU-Sim PTX: ... end of reconvergence points for findK
GPGPU-Sim PTX: ... done pre-decoding instructions for 'findK'.
GPGPU-Sim PTX: finished parsing EMBEDDED .ptx file _1.ptx
Adding _cuobjdump_1.ptx with cubin handle 1
GPGPU-Sim PTX: extracting embedded .ptx to temporary file "_ptx_PYJJdB"
Running: cat _ptx_PYJJdB | sed 's/.version 1.5/.version 1.4/' | sed 's/, texmode_independent//' | sed 's/\(\.extern \.const\[1\] .b8 \w\+\)\[\]/\1\[1\]/' | sed 's/const\[.\]/const\[0\]/g' > _ptx2_0G3M12
GPGPU-Sim PTX: generating ptxinfo using "$CUDA_INSTALL_PATH/bin/ptxas --gpu-name=sm_20 -v _ptx2_0G3M12 --output-file  /dev/null 2> _ptx_PYJJdBinfo"
GPGPU-Sim PTX: Kernel 'findK' : regs=18, lmem=0, smem=0, cmem=96
GPGPU-Sim PTX: removing ptxinfo using "rm -f _ptx_PYJJdB _ptx2_0G3M12 _ptx_PYJJdBinfo"
GPGPU-Sim PTX: loading globals with explicit initializers... 
GPGPU-Sim PTX: finished loading globals (0 bytes total).
GPGPU-Sim PTX: loading constants with explicit initializers...  done.
GPGPU-Sim PTX: __cudaRegisterFatBinary, fat_cubin_handle = 2, filename=./kernel/kernel_gpu_cuda_wrapper_2.cu
GPGPU-Sim PTX: __cudaRegisterFunction findRangeK : hostFun 0x0x406530, fat_cubin_handle = 2
GPGPU-Sim PTX: instruction assembly for function 'findRangeK'...   done.
GPGPU-Sim PTX: finding reconvergence points for 'findRangeK'...
GPGPU-Sim PTX: Finding dominators for 'findRangeK'...
GPGPU-Sim PTX: Finding immediate dominators for 'findRangeK'...
GPGPU-Sim PTX: Finding postdominators for 'findRangeK'...
GPGPU-Sim PTX: Finding immediate postdominators for 'findRangeK'...
GPGPU-Sim PTX: pre-decoding instructions for 'findRangeK'...
GPGPU-Sim PTX: reconvergence points for findRangeK...
GPGPU-Sim PTX:  1 (potential) branch divergence @  PC=0x2c0 (_2.ptx:79) @%p1 bra $Lt_0_11778;
GPGPU-Sim PTX:    immediate post dominator      @  PC=0x528 (_2.ptx:174) ld.global.u64 %rd43, [%rd15+0];
GPGPU-Sim PTX:  2 (potential) branch divergence @  PC=0x368 (_2.ptx:103) @%p3 bra $Lt_0_12034;
GPGPU-Sim PTX:    immediate post dominator      @  PC=0x3c8 (_2.ptx:119) ld.global.s32 %r8, [%rd14+0];
GPGPU-Sim PTX:  3 (potential) branch divergence @  PC=0x380 (_2.ptx:106) @%p4 bra $Lt_0_12034;
GPGPU-Sim PTX:    immediate post dominator      @  PC=0x3c8 (_2.ptx:119) ld.global.s32 %r8, [%rd14+0];
GPGPU-Sim PTX:  4 (potential) branch divergence @  PC=0x3a8 (_2.ptx:111) @%p5 bra $Lt_0_12034;
GPGPU-Sim PTX:    immediate post dominator      @  PC=0x3c8 (_2.ptx:119) ld.global.s32 %r8, [%rd14+0];
GPGPU-Sim PTX:  5 (potential) branch divergence @  PC=0x400 (_2.ptx:126) @%p6 bra $Lt_0_12546;
GPGPU-Sim PTX:    immediate post dominator      @  PC=0x460 (_2.ptx:142) bar.sync 0;
GPGPU-Sim PTX:  6 (potential) branch divergence @  PC=0x418 (_2.ptx:129) @%p7 bra $Lt_0_12546;
GPGPU-Sim PTX:    immediate post dominator      @  PC=0x460 (_2.ptx:142) bar.sync 0;
GPGPU-Sim PTX:  7 (potential) branch divergence @  PC=0x440 (_2.ptx:134) @%p8 bra $Lt_0_12546;
GPGPU-Sim PTX:    immediate post dominator      @  PC=0x460 (_2.ptx:142) bar.sync 0;
GPGPU-Sim PTX:  8 (potential) branch divergence @  PC=0x468 (_2.ptx:143) @!%p2 bra $Lt_0_9986;
GPGPU-Sim PTX:    immediate post dominator      @  PC=0x4b0 (_2.ptx:156) bar.sync 0;
GPGPU-Sim PTX:  9 (potential) branch divergence @  PC=0x4c8 (_2.ptx:160) @%p9 bra $Lt_0_8706;
GPGPU-Sim PTX:    immediate post dominator      @  PC=0x4d0 (_2.ptx:161) bra.uni $Lt_0_8194;
GPGPU-Sim PTX: 10 (potential) branch divergence @  PC=0x4d0 (_2.ptx:161) bra.uni $Lt_0_8194;
GPGPU-Sim PTX:    immediate post dominator      @  PC=0x528 (_2.ptx:174) ld.global.u64 %rd43, [%rd15+0];
GPGPU-Sim PTX: 11 (potential) branch divergence @  PC=0x560 (_2.ptx:181) @%p10 bra $Lt_0_10754;
GPGPU-Sim PTX:    immediate post dominator      @  PC=0x588 (_2.ptx:189) bar.sync 0;
GPGPU-Sim PTX: 12 (potential) branch divergence @  PC=0x5c8 (_2.ptx:197) @%p11 bra $Lt_0_11266;
GPGPU-Sim PTX:    immediate post dominator      @  PC=0x618 (_2.ptx:210) exit;
GPGPU-Sim PTX: ... end of reconvergence points for findRangeK
GPGPU-Sim PTX: ... done pre-decoding instructions for 'findRangeK'.
GPGPU-Sim PTX: finished parsing EMBEDDED .ptx file _2.ptx
Adding _cuobjdump_2.ptx with cubin handle 2
GPGPU-Sim PTX: extracting embedded .ptx to temporary file "_ptx_vBcXCv"
Running: cat _ptx_vBcXCv | sed 's/.version 1.5/.version 1.4/' | sed 's/, texmode_independent//' | sed 's/\(\.extern \.const\[1\] .b8 \w\+\)\[\]/\1\[1\]/' | sed 's/const\[.\]/const\[0\]/g' > _ptx2_7xJ8dY
GPGPU-Sim PTX: generating ptxinfo using "$CUDA_INSTALL_PATH/bin/ptxas --gpu-name=sm_20 -v _ptx2_7xJ8dY --output-file  /dev/null 2> _ptx_vBcXCvinfo"
GPGPU-Sim PTX: Kernel 'findRangeK' : regs=23, lmem=0, smem=0, cmem=120
GPGPU-Sim PTX: removing ptxinfo using "rm -f _ptx_vBcXCv _ptx2_7xJ8dY _ptx_vBcXCvinfo"
GPGPU-Sim PTX: loading globals with explicit initializers... 
GPGPU-Sim PTX: finished loading globals (0 bytes total).
GPGPU-Sim PTX: loading constants with explicit initializers...  done.
GPGPU-Sim PTX: __cudaRegisterFatBinary, fat_cubin_handle = 3, filename=./util/cuda/cuda.cu
Selecting device 0
Input File: ../../data/b+tree/mil.txt 
Command File: ../../data/b+tree/command.txt 
Command Buffer: 
j 6000 3000
k 10000


Getting input from file ../../data/b+tree/mil.txt...
Transforming data to a GPU suitable structure...
Tree transformation took 0.840670
Waiting for command
> 
******command: j count=6000, rSize=6000 
knodes_elem=3953, knodes_unit_mem=4084, knodes_mem=16144052
GPGPU-Sim: synchronize waiting for inactive GPU simulation
GPGPU-Sim API: Stream Manager State
GPGPU-Sim: detected inactive GPU simulation thread
# of blocks = 6000, # of threads/block = 508 (ensure that device can handle)

GPGPU-Sim PTX: cudaLaunch for 0x0x406530 (mode=performance simulation) on stream 0
GPGPU-Sim PTX: pushing kernel 'findRangeK' to stream 0, gridDim= (6000,1,1) blockDim = (508,1,1) 
kernel 'findRangeK' transfer to GPU hardware scheduler
GPGPU-Sim uArch: Shader 1 bind to kernel 1 'findRangeK'
GPGPU-Sim uArch: CTA/core = 2, limited by: regs
GPGPU-Sim uArch: core:  1, cta: 0 initialized @(1,0)
GPGPU-Sim uArch: Shader 2 bind to kernel 1 'findRangeK'
GPGPU-Sim uArch: core:  2, cta: 0 initialized @(1,0)
GPGPU-Sim uArch: Shader 3 bind to kernel 1 'findRangeK'
GPGPU-Sim uArch: core:  3, cta: 0 initialized @(1,0)
GPGPU-Sim uArch: Shader 4 bind to kernel 1 'findRangeK'
GPGPU-Sim uArch: core:  4, cta: 0 initialized @(1,0)
GPGPU-Sim uArch: Shader 5 bind to kernel 1 'findRangeK'
GPGPU-Sim uArch: core:  5, cta: 0 initialized @(1,0)
GPGPU-Sim uArch: Shader 6 bind to kernel 1 'findRangeK'
GPGPU-Sim uArch: core:  6, cta: 0 initialized @(1,0)
GPGPU-Sim uArch: Shader 7 bind to kernel 1 'findRangeK'
GPGPU-Sim uArch: core:  7, cta: 0 initialized @(1,0)
GPGPU-Sim uArch: Shader 8 bind to kernel 1 'findRangeK'
GPGPU-Sim uArch: core:  8, cta: 0 initialized @(1,0)
GPGPU-Sim uArch: Shader 9 bind to kernel 1 'findRangeK'
GPGPU-Sim uArch: core:  9, cta: 0 initialized @(1,0)
GPGPU-Sim uArch: Shader 10 bind to kernel 1 'findRangeK'
GPGPU-Sim uArch: core: 10, cta: 0 initialized @(1,0)
GPGPU-Sim uArch: Shader 11 bind to kernel 1 'findRangeK'
GPGPU-Sim uArch: core: 11, cta: 0 initialized @(1,0)
GPGPU-Sim uArch: Shader 12 bind to kernel 1 'findRangeK'
GPGPU-Sim uArch: core: 12, cta: 0 initialized @(1,0)
GPGPU-Sim uArch: Shader 13 bind to kernel 1 'findRangeK'
GPGPU-Sim uArch: core: 13, cta: 0 initialized @(1,0)
GPGPU-Sim uArch: Shader 14 bind to kernel 1 'findRangeK'
GPGPU-Sim uArch: core: 14, cta: 0 initialized @(1,0)
GPGPU-Sim uArch: Shader 0 bind to kernel 1 'findRangeK'
GPGPU-Sim uArch: core:  0, cta: 0 initialized @(1,0)
GPGPU-Sim uArch: core:  1, cta: 1 initialized @(2,0)
GPGPU-Sim uArch: core:  2, cta: 1 initialized @(2,0)
GPGPU-Sim uArch: core:  3, cta: 1 initialized @(2,0)
GPGPU-Sim uArch: core:  4, cta: 1 initialized @(2,0)
GPGPU-Sim uArch: core:  5, cta: 1 initialized @(2,0)
GPGPU-Sim uArch: core:  6, cta: 1 initialized @(2,0)
GPGPU-Sim uArch: core:  7, cta: 1 initialized @(2,0)
GPGPU-Sim uArch: core:  8, cta: 1 initialized @(2,0)
GPGPU-Sim uArch: core:  9, cta: 1 initialized @(2,0)
GPGPU-Sim uArch: core: 10, cta: 1 initialized @(2,0)
GPGPU-Sim uArch: core: 11, cta: 1 initialized @(2,0)
GPGPU-Sim uArch: core: 12, cta: 1 initialized @(2,0)
GPGPU-Sim uArch: core: 13, cta: 1 initialized @(2,0)
GPGPU-Sim uArch: core: 14, cta: 1 initialized @(2,0)
GPGPU-Sim uArch: core:  0, cta: 1 initialized @(2,0)
GPGPU-Sim uArch: cycles simulated: 500  inst.: 0 (ipc= 0.0) sim_rate=0 (inst/sec) elapsed = 0:0:00:23 / Thu Aug 14 11:03:22 2014
GPGPU-Sim PTX: 100000 instructions simulated : ctaid=(19,0,0) tid=(91,0,0)
GPGPU-Sim PTX: 200000 instructions simulated : ctaid=(8,0,0) tid=(7,0,0)
GPGPU-Sim uArch: cycles simulated: 1000  inst.: 255476 (ipc=255.5) sim_rate=9826 (inst/sec) elapsed = 0:0:00:26 / Thu Aug 14 11:03:25 2014
GPGPU-Sim PTX: 300000 instructions simulated : ctaid=(8,0,0) tid=(411,0,0)
GPGPU-Sim uArch: cycles simulated: 1500  inst.: 337880 (ipc=225.3) sim_rate=12067 (inst/sec) elapsed = 0:0:00:28 / Thu Aug 14 11:03:27 2014
GPGPU-Sim PTX: 400000 instructions simulated : ctaid=(22,0,0) tid=(63,0,0)
GPGPU-Sim uArch: cycles simulated: 2000  inst.: 426874 (ipc=213.4) sim_rate=14229 (inst/sec) elapsed = 0:0:00:30 / Thu Aug 14 11:03:29 2014
GPGPU-Sim PTX: 500000 instructions simulated : ctaid=(29,0,0) tid=(352,0,0)
GPGPU-Sim uArch: cycles simulated: 2500  inst.: 529708 (ipc=211.9) sim_rate=16051 (inst/sec) elapsed = 0:0:00:33 / Thu Aug 14 11:03:32 2014
GPGPU-Sim PTX: 600000 instructions simulated : ctaid=(6,0,0) tid=(59,0,0)
GPGPU-Sim uArch: cycles simulated: 3000  inst.: 611006 (ipc=203.7) sim_rate=17970 (inst/sec) elapsed = 0:0:00:34 / Thu Aug 14 11:03:33 2014
GPGPU-Sim PTX: 700000 instructions simulated : ctaid=(26,0,0) tid=(265,0,0)
GPGPU-Sim uArch: cycles simulated: 3500  inst.: 686318 (ipc=196.1) sim_rate=19064 (inst/sec) elapsed = 0:0:00:36 / Thu Aug 14 11:03:35 2014
GPGPU-Sim uArch: cycles simulated: 4000  inst.: 760414 (ipc=190.1) sim_rate=19497 (inst/sec) elapsed = 0:0:00:39 / Thu Aug 14 11:03:38 2014
GPGPU-Sim PTX: 800000 instructions simulated : ctaid=(22,0,0) tid=(263,0,0)
GPGPU-Sim uArch: cycles simulated: 4500  inst.: 854936 (ipc=190.0) sim_rate=20852 (inst/sec) elapsed = 0:0:00:41 / Thu Aug 14 11:03:40 2014
GPGPU-Sim PTX: 900000 instructions simulated : ctaid=(1,0,0) tid=(285,0,0)
GPGPU-Sim uArch: cycles simulated: 5000  inst.: 965418 (ipc=193.1) sim_rate=22451 (inst/sec) elapsed = 0:0:00:43 / Thu Aug 14 11:03:42 2014
GPGPU-Sim PTX: 1000000 instructions simulated : ctaid=(11,0,0) tid=(429,0,0)
GPGPU-Sim uArch: cycles simulated: 5500  inst.: 1018789 (ipc=185.2) sim_rate=22639 (inst/sec) elapsed = 0:0:00:45 / Thu Aug 14 11:03:44 2014
GPGPU-Sim PTX: 1100000 instructions simulated : ctaid=(29,0,0) tid=(319,0,0)
GPGPU-Sim uArch: cycles simulated: 6000  inst.: 1104679 (ipc=184.1) sim_rate=23014 (inst/sec) elapsed = 0:0:00:48 / Thu Aug 14 11:03:47 2014
GPGPU-Sim uArch: cycles simulated: 6500  inst.: 1157327 (ipc=178.1) sim_rate=23146 (inst/sec) elapsed = 0:0:00:50 / Thu Aug 14 11:03:49 2014
GPGPU-Sim PTX: 1200000 instructions simulated : ctaid=(0,0,0) tid=(489,0,0)
GPGPU-Sim uArch: cycles simulated: 7000  inst.: 1234175 (ipc=176.3) sim_rate=23286 (inst/sec) elapsed = 0:0:00:53 / Thu Aug 14 11:03:52 2014
GPGPU-Sim PTX: 1300000 instructions simulated : ctaid=(2,0,0) tid=(462,0,0)
GPGPU-Sim uArch: cycles simulated: 7500  inst.: 1279385 (ipc=170.6) sim_rate=23261 (inst/sec) elapsed = 0:0:00:55 / Thu Aug 14 11:03:54 2014
GPGPU-Sim uArch: Shader 1 finished CTA #0 (7573,0), 1 CTAs running
GPGPU-Sim uArch: core:  1, cta: 0 initialized @(7574,0)
GPGPU-Sim uArch: Shader 12 finished CTA #0 (7575,0), 1 CTAs running
GPGPU-Sim uArch: core: 12, cta: 0 initialized @(7576,0)
GPGPU-Sim uArch: Shader 8 finished CTA #0 (7607,0), 1 CTAs running
GPGPU-Sim uArch: core:  8, cta: 0 initialized @(7608,0)
GPGPU-Sim uArch: Shader 6 finished CTA #0 (7618,0), 1 CTAs running
GPGPU-Sim uArch: core:  6, cta: 0 initialized @(7619,0)
GPGPU-Sim uArch: Shader 1 finished CTA #1 (7681,0), 1 CTAs running
GPGPU-Sim uArch: core:  1, cta: 1 initialized @(7682,0)
GPGPU-Sim uArch: Shader 10 finished CTA #0 (7684,0), 1 CTAs running
GPGPU-Sim uArch: core: 10, cta: 0 initialized @(7685,0)
GPGPU-Sim uArch: Shader 10 finished CTA #1 (7709,0), 1 CTAs running
GPGPU-Sim uArch: core: 10, cta: 1 initialized @(7710,0)
GPGPU-Sim uArch: Shader 14 finished CTA #0 (7732,0), 1 CTAs running
GPGPU-Sim uArch: core: 14, cta: 0 initialized @(7733,0)
GPGPU-Sim uArch: Shader 4 finished CTA #0 (7739,0), 1 CTAs running
GPGPU-Sim uArch: core:  4, cta: 0 initialized @(7740,0)
GPGPU-Sim uArch: Shader 4 finished CTA #1 (7766,0), 1 CTAs running
GPGPU-Sim uArch: core:  4, cta: 1 initialized @(7767,0)
GPGPU-Sim uArch: Shader 2 finished CTA #1 (7778,0), 1 CTAs running
GPGPU-Sim uArch: core:  2, cta: 1 initialized @(7779,0)
GPGPU-Sim uArch: Shader 12 finished CTA #1 (7786,0), 1 CTAs running
GPGPU-Sim uArch: core: 12, cta: 1 initialized @(7787,0)
GPGPU-Sim uArch: Shader 2 finished CTA #0 (7795,0), 1 CTAs running
GPGPU-Sim uArch: core:  2, cta: 0 initialized @(7796,0)
GPGPU-Sim uArch: Shader 0 finished CTA #0 (7797,0), 1 CTAs running
GPGPU-Sim uArch: core:  0, cta: 0 initialized @(7798,0)
GPGPU-Sim uArch: Shader 3 finished CTA #1 (7808,0), 1 CTAs running
GPGPU-Sim uArch: core:  3, cta: 1 initialized @(7809,0)
GPGPU-Sim uArch: Shader 7 finished CTA #0 (7822,0), 1 CTAs running
GPGPU-Sim uArch: core:  7, cta: 0 initialized @(7823,0)
GPGPU-Sim PTX: 1400000 instructions simulated : ctaid=(36,0,0) tid=(36,0,0)
GPGPU-Sim uArch: Shader 11 finished CTA #1 (7825,0), 1 CTAs running
GPGPU-Sim uArch: core: 11, cta: 1 initialized @(7826,0)
GPGPU-Sim uArch: Shader 9 finished CTA #0 (7828,0), 1 CTAs running
GPGPU-Sim uArch: core:  9, cta: 0 initialized @(7829,0)
GPGPU-Sim uArch: Shader 3 finished CTA #0 (7834,0), 1 CTAs running
GPGPU-Sim uArch: core:  3, cta: 0 initialized @(7835,0)
GPGPU-Sim uArch: Shader 7 finished CTA #1 (7839,0), 1 CTAs running
GPGPU-Sim uArch: core:  7, cta: 1 initialized @(7840,0)
GPGPU-Sim uArch: Shader 8 finished CTA #1 (7840,0), 1 CTAs running
GPGPU-Sim uArch: core:  8, cta: 1 initialized @(7841,0)
GPGPU-Sim uArch: Shader 9 finished CTA #1 (7845,0), 1 CTAs running
GPGPU-Sim uArch: core:  9, cta: 1 initialized @(7846,0)
GPGPU-Sim uArch: Shader 6 finished CTA #1 (7848,0), 1 CTAs running
GPGPU-Sim uArch: core:  6, cta: 1 initialized @(7849,0)
GPGPU-Sim uArch: Shader 0 finished CTA #1 (7873,0), 1 CTAs running
GPGPU-Sim uArch: core:  0, cta: 1 initialized @(7874,0)
GPGPU-Sim uArch: Shader 13 finished CTA #1 (7940,0), 1 CTAs running
GPGPU-Sim uArch: core: 13, cta: 1 initialized @(7941,0)
GPGPU-Sim uArch: Shader 5 finished CTA #1 (7952,0), 1 CTAs running
GPGPU-Sim uArch: core:  5, cta: 1 initialized @(7953,0)
GPGPU-Sim uArch: Shader 11 finished CTA #0 (7963,0), 1 CTAs running
GPGPU-Sim uArch: core: 11, cta: 0 initialized @(7964,0)
GPGPU-Sim PTX: 1500000 instructions simulated : ctaid=(30,0,0) tid=(13,0,0)
GPGPU-Sim uArch: cycles simulated: 8000  inst.: 1452182 (ipc=181.5) sim_rate=24613 (inst/sec) elapsed = 0:0:00:59 / Thu Aug 14 11:03:58 2014
GPGPU-Sim uArch: Shader 14 finished CTA #1 (8028,0), 1 CTAs running
GPGPU-Sim uArch: core: 14, cta: 1 initialized @(8029,0)
GPGPU-Sim uArch: Shader 13 finished CTA #0 (8032,0), 1 CTAs running
GPGPU-Sim uArch: core: 13, cta: 0 initialized @(8033,0)
GPGPU-Sim uArch: Shader 5 finished CTA #0 (8044,0), 1 CTAs running
GPGPU-Sim uArch: core:  5, cta: 0 initialized @(8045,0)
GPGPU-Sim PTX: 1600000 instructions simulated : ctaid=(33,0,0) tid=(317,0,0)
GPGPU-Sim PTX: 1700000 instructions simulated : ctaid=(59,0,0) tid=(68,0,0)
GPGPU-Sim uArch: cycles simulated: 8500  inst.: 1709564 (ipc=201.1) sim_rate=26711 (inst/sec) elapsed = 0:0:01:04 / Thu Aug 14 11:04:03 2014
GPGPU-Sim PTX: 1800000 instructions simulated : ctaid=(58,0,0) tid=(161,0,0)
GPGPU-Sim PTX: 1900000 instructions simulated : ctaid=(40,0,0) tid=(7,0,0)
GPGPU-Sim uArch: cycles simulated: 9000  inst.: 1902253 (ipc=211.4) sim_rate=28391 (inst/sec) elapsed = 0:0:01:07 / Thu Aug 14 11:04:06 2014
GPGPU-Sim PTX: 2000000 instructions simulated : ctaid=(56,0,0) tid=(351,0,0)
GPGPU-Sim uArch: cycles simulated: 9500  inst.: 1985358 (ipc=209.0) sim_rate=28773 (inst/sec) elapsed = 0:0:01:09 / Thu Aug 14 11:04:08 2014
GPGPU-Sim PTX: 2100000 instructions simulated : ctaid=(34,0,0) tid=(342,0,0)
GPGPU-Sim uArch: cycles simulated: 10000  inst.: 2094883 (ipc=209.5) sim_rate=29095 (inst/sec) elapsed = 0:0:01:12 / Thu Aug 14 11:04:11 2014
GPGPU-Sim PTX: 2200000 instructions simulated : ctaid=(33,0,0) tid=(53,0,0)
GPGPU-Sim uArch: cycles simulated: 10500  inst.: 2197375 (ipc=209.3) sim_rate=29298 (inst/sec) elapsed = 0:0:01:15 / Thu Aug 14 11:04:14 2014
GPGPU-Sim PTX: 2300000 instructions simulated : ctaid=(45,0,0) tid=(40,0,0)
GPGPU-Sim uArch: cycles simulated: 11000  inst.: 2298880 (ipc=209.0) sim_rate=29855 (inst/sec) elapsed = 0:0:01:17 / Thu Aug 14 11:04:16 2014
GPGPU-Sim PTX: 2400000 instructions simulated : ctaid=(38,0,0) tid=(124,0,0)
GPGPU-Sim uArch: cycles simulated: 11500  inst.: 2376171 (ipc=206.6) sim_rate=30078 (inst/sec) elapsed = 0:0:01:19 / Thu Aug 14 11:04:18 2014
GPGPU-Sim PTX: 2500000 instructions simulated : ctaid=(49,0,0) tid=(19,0,0)
GPGPU-Sim uArch: cycles simulated: 12000  inst.: 2440463 (ipc=203.4) sim_rate=30129 (inst/sec) elapsed = 0:0:01:21 / Thu Aug 14 11:04:20 2014
GPGPU-Sim PTX: 2600000 instructions simulated : ctaid=(52,0,0) tid=(236,0,0)
GPGPU-Sim uArch: cycles simulated: 12500  inst.: 2513988 (ipc=201.1) sim_rate=29928 (inst/sec) elapsed = 0:0:01:24 / Thu Aug 14 11:04:23 2014
GPGPU-Sim uArch: Shader 12 finished CTA #0 (12775,0), 1 CTAs running
GPGPU-Sim uArch: core: 12, cta: 0 initialized @(12776,0)
GPGPU-Sim uArch: cycles simulated: 13000  inst.: 2582457 (ipc=198.7) sim_rate=30028 (inst/sec) elapsed = 0:0:01:26 / Thu Aug 14 11:04:25 2014
GPGPU-Sim uArch: Shader 8 finished CTA #0 (13190,0), 1 CTAs running
GPGPU-Sim uArch: core:  8, cta: 0 initialized @(13191,0)
GPGPU-Sim uArch: Shader 14 finished CTA #0 (13192,0), 1 CTAs running
GPGPU-Sim uArch: core: 14, cta: 0 initialized @(13193,0)
GPGPU-Sim uArch: Shader 12 finished CTA #1 (13195,0), 1 CTAs running
GPGPU-Sim uArch: core: 12, cta: 1 initialized @(13196,0)
GPGPU-Sim uArch: Shader 10 finished CTA #0 (13196,0), 1 CTAs running
GPGPU-Sim uArch: core: 10, cta: 0 initialized @(13197,0)
GPGPU-Sim uArch: Shader 2 finished CTA #1 (13200,0), 1 CTAs running
GPGPU-Sim uArch: core:  2, cta: 1 initialized @(13201,0)
GPGPU-Sim uArch: Shader 2 finished CTA #0 (13213,0), 1 CTAs running
GPGPU-Sim uArch: Shader 10 finished CTA #1 (13213,0), 1 CTAs running
GPGPU-Sim uArch: core: 10, cta: 1 initialized @(13214,0)
GPGPU-Sim uArch: core:  2, cta: 0 initialized @(13214,0)
GPGPU-Sim uArch: Shader 6 finished CTA #0 (13220,0), 1 CTAs running
GPGPU-Sim uArch: core:  6, cta: 0 initialized @(13221,0)
GPGPU-Sim uArch: Shader 7 finished CTA #0 (13222,0), 1 CTAs running
GPGPU-Sim uArch: core:  7, cta: 0 initialized @(13223,0)
GPGPU-Sim PTX: 2700000 instructions simulated : ctaid=(63,0,0) tid=(324,0,0)
GPGPU-Sim uArch: Shader 1 finished CTA #1 (13319,0), 1 CTAs running
GPGPU-Sim uArch: core:  1, cta: 1 initialized @(13320,0)
GPGPU-Sim uArch: Shader 0 finished CTA #0 (13323,0), 1 CTAs running
GPGPU-Sim uArch: core:  0, cta: 0 initialized @(13324,0)
GPGPU-Sim uArch: Shader 1 finished CTA #0 (13336,0), 1 CTAs running
GPGPU-Sim uArch: core:  1, cta: 0 initialized @(13337,0)
GPGPU-Sim uArch: Shader 4 finished CTA #0 (13439,0), 1 CTAs running
GPGPU-Sim uArch: core:  4, cta: 0 initialized @(13440,0)
GPGPU-Sim uArch: Shader 8 finished CTA #1 (13441,0), 1 CTAs running
GPGPU-Sim uArch: core:  8, cta: 1 initialized @(13442,0)
GPGPU-Sim uArch: Shader 5 finished CTA #1 (13445,0), 1 CTAs running
GPGPU-Sim uArch: core:  5, cta: 1 initialized @(13446,0)
GPGPU-Sim uArch: Shader 13 finished CTA #0 (13447,0), 1 CTAs running
GPGPU-Sim uArch: core: 13, cta: 0 initialized @(13448,0)
GPGPU-Sim uArch: Shader 9 finished CTA #0 (13452,0), 1 CTAs running
GPGPU-Sim uArch: core:  9, cta: 0 initialized @(13453,0)
GPGPU-Sim uArch: Shader 7 finished CTA #1 (13453,0), 1 CTAs running
GPGPU-Sim uArch: core:  7, cta: 1 initialized @(13454,0)
GPGPU-Sim uArch: Shader 4 finished CTA #1 (13456,0), 1 CTAs running
GPGPU-Sim uArch: core:  4, cta: 1 initialized @(13457,0)
GPGPU-Sim uArch: Shader 5 finished CTA #0 (13462,0), 1 CTAs running
GPGPU-Sim uArch: core:  5, cta: 0 initialized @(13463,0)
GPGPU-Sim PTX: 2800000 instructions simulated : ctaid=(66,0,0) tid=(326,0,0)
GPGPU-Sim uArch: cycles simulated: 13500  inst.: 2720980 (ipc=201.6) sim_rate=30572 (inst/sec) elapsed = 0:0:01:29 / Thu Aug 14 11:04:28 2014
GPGPU-Sim uArch: Shader 11 finished CTA #1 (13638,0), 1 CTAs running
GPGPU-Sim uArch: core: 11, cta: 1 initialized @(13639,0)
GPGPU-Sim uArch: Shader 14 finished CTA #1 (13639,0), 1 CTAs running
GPGPU-Sim uArch: core: 14, cta: 1 initialized @(13640,0)
GPGPU-Sim uArch: Shader 13 finished CTA #1 (13641,0), 1 CTAs running
GPGPU-Sim uArch: core: 13, cta: 1 initialized @(13642,0)
GPGPU-Sim uArch: Shader 9 finished CTA #1 (13667,0), 1 CTAs running
GPGPU-Sim uArch: core:  9, cta: 1 initialized @(13668,0)
GPGPU-Sim PTX: 2900000 instructions simulated : ctaid=(73,0,0) tid=(177,0,0)
GPGPU-Sim uArch: Shader 0 finished CTA #1 (13680,0), 1 CTAs running
GPGPU-Sim uArch: core:  0, cta: 1 initialized @(13681,0)
GPGPU-Sim uArch: Shader 3 finished CTA #0 (13740,0), 1 CTAs running
GPGPU-Sim uArch: core:  3, cta: 0 initialized @(13741,0)
GPGPU-Sim uArch: Shader 11 finished CTA #0 (13767,0), 1 CTAs running
GPGPU-Sim uArch: core: 11, cta: 0 initialized @(13768,0)
GPGPU-Sim uArch: Shader 3 finished CTA #1 (13799,0), 1 CTAs running
GPGPU-Sim uArch: core:  3, cta: 1 initialized @(13800,0)
GPGPU-Sim PTX: 3000000 instructions simulated : ctaid=(77,0,0) tid=(90,0,0)
GPGPU-Sim uArch: Shader 6 finished CTA #1 (13845,0), 1 CTAs running
GPGPU-Sim uArch: core:  6, cta: 1 initialized @(13846,0)
GPGPU-Sim uArch: cycles simulated: 14000  inst.: 2980105 (ipc=212.9) sim_rate=32044 (inst/sec) elapsed = 0:0:01:33 / Thu Aug 14 11:04:32 2014
GPGPU-Sim PTX: 3100000 instructions simulated : ctaid=(75,0,0) tid=(268,0,0)
GPGPU-Sim PTX: 3200000 instructions simulated : ctaid=(84,0,0) tid=(32,0,0)
GPGPU-Sim uArch: cycles simulated: 14500  inst.: 3152023 (ipc=217.4) sim_rate=32833 (inst/sec) elapsed = 0:0:01:36 / Thu Aug 14 11:04:35 2014
GPGPU-Sim PTX: 3300000 instructions simulated : ctaid=(61,0,0) tid=(407,0,0)
GPGPU-Sim uArch: cycles simulated: 15000  inst.: 3267266 (ipc=217.8) sim_rate=33002 (inst/sec) elapsed = 0:0:01:39 / Thu Aug 14 11:04:38 2014
GPGPU-Sim PTX: 3400000 instructions simulated : ctaid=(79,0,0) tid=(336,0,0)
GPGPU-Sim uArch: cycles simulated: 15500  inst.: 3380800 (ipc=218.1) sim_rate=33473 (inst/sec) elapsed = 0:0:01:41 / Thu Aug 14 11:04:40 2014
GPGPU-Sim PTX: 3500000 instructions simulated : ctaid=(84,0,0) tid=(502,0,0)
GPGPU-Sim uArch: cycles simulated: 16000  inst.: 3469881 (ipc=216.9) sim_rate=33364 (inst/sec) elapsed = 0:0:01:44 / Thu Aug 14 11:04:43 2014
GPGPU-Sim PTX: 3600000 instructions simulated : ctaid=(61,0,0) tid=(416,0,0)
GPGPU-Sim PTX: 3700000 instructions simulated : ctaid=(85,0,0) tid=(50,0,0)
GPGPU-Sim uArch: cycles simulated: 16500  inst.: 3592958 (ipc=217.8) sim_rate=33895 (inst/sec) elapsed = 0:0:01:46 / Thu Aug 14 11:04:45 2014
GPGPU-Sim uArch: cycles simulated: 17000  inst.: 3674229 (ipc=216.1) sim_rate=34020 (inst/sec) elapsed = 0:0:01:48 / Thu Aug 14 11:04:47 2014
GPGPU-Sim PTX: 3800000 instructions simulated : ctaid=(76,0,0) tid=(280,0,0)
GPGPU-Sim uArch: Shader 12 finished CTA #0 (17410,0), 1 CTAs running
GPGPU-Sim uArch: core: 12, cta: 0 initialized @(17411,0)
GPGPU-Sim uArch: cycles simulated: 17500  inst.: 3750776 (ipc=214.3) sim_rate=34097 (inst/sec) elapsed = 0:0:01:50 / Thu Aug 14 11:04:49 2014
GPGPU-Sim uArch: Shader 12 finished CTA #1 (17525,0), 1 CTAs running
GPGPU-Sim uArch: core: 12, cta: 1 initialized @(17526,0)
GPGPU-Sim PTX: 3900000 instructions simulated : ctaid=(77,0,0) tid=(87,0,0)
GPGPU-Sim uArch: cycles simulated: 18000  inst.: 3831347 (ipc=212.9) sim_rate=33905 (inst/sec) elapsed = 0:0:01:53 / Thu Aug 14 11:04:52 2014
GPGPU-Sim PTX: 4000000 instructions simulated : ctaid=(91,0,0) tid=(258,0,0)
GPGPU-Sim uArch: Shader 8 finished CTA #0 (18446,0), 1 CTAs running
GPGPU-Sim uArch: core:  8, cta: 0 initialized @(18447,0)
GPGPU-Sim uArch: cycles simulated: 18500  inst.: 3899767 (ipc=210.8) sim_rate=33911 (inst/sec) elapsed = 0:0:01:55 / Thu Aug 14 11:04:54 2014
GPGPU-Sim uArch: Shader 1 finished CTA #0 (18692,0), 1 CTAs running
GPGPU-Sim uArch: core:  1, cta: 0 initialized @(18693,0)
GPGPU-Sim uArch: Shader 7 finished CTA #1 (18694,0), 1 CTAs running
GPGPU-Sim uArch: core:  7, cta: 1 initialized @(18695,0)
GPGPU-Sim uArch: Shader 2 finished CTA #0 (18696,0), 1 CTAs running
GPGPU-Sim uArch: core:  2, cta: 0 initialized @(18697,0)
GPGPU-Sim uArch: Shader 10 finished CTA #1 (18700,0), 1 CTAs running
GPGPU-Sim uArch: core: 10, cta: 1 initialized @(18701,0)
GPGPU-Sim uArch: Shader 1 finished CTA #1 (18709,0), 1 CTAs running
GPGPU-Sim uArch: core:  1, cta: 1 initialized @(18710,0)
GPGPU-Sim uArch: Shader 7 finished CTA #0 (18711,0), 1 CTAs running
GPGPU-Sim uArch: core:  7, cta: 0 initialized @(18712,0)
GPGPU-Sim uArch: Shader 2 finished CTA #1 (18713,0), 1 CTAs running
GPGPU-Sim uArch: core:  2, cta: 1 initialized @(18714,0)
GPGPU-Sim uArch: Shader 10 finished CTA #0 (18717,0), 1 CTAs running
GPGPU-Sim uArch: core: 10, cta: 0 initialized @(18718,0)
GPGPU-Sim uArch: Shader 8 finished CTA #1 (18804,0), 1 CTAs running
GPGPU-Sim uArch: core:  8, cta: 1 initialized @(18805,0)
GPGPU-Sim PTX: 4100000 instructions simulated : ctaid=(99,0,0) tid=(427,0,0)
GPGPU-Sim uArch: Shader 4 finished CTA #1 (18960,0), 1 CTAs running
GPGPU-Sim uArch: core:  4, cta: 1 initialized @(18961,0)
GPGPU-Sim uArch: Shader 5 finished CTA #0 (18964,0), 1 CTAs running
GPGPU-Sim uArch: core:  5, cta: 0 initialized @(18965,0)
GPGPU-Sim uArch: Shader 13 finished CTA #0 (18966,0), 1 CTAs running
GPGPU-Sim uArch: core: 13, cta: 0 initialized @(18967,0)
GPGPU-Sim uArch: Shader 4 finished CTA #0 (18977,0), 1 CTAs running
GPGPU-Sim uArch: core:  4, cta: 0 initialized @(18978,0)
GPGPU-Sim uArch: Shader 6 finished CTA #1 (18993,0), 1 CTAs running
GPGPU-Sim uArch: core:  6, cta: 1 initialized @(18994,0)
GPGPU-Sim uArch: cycles simulated: 19000  inst.: 4011104 (ipc=211.1) sim_rate=33992 (inst/sec) elapsed = 0:0:01:58 / Thu Aug 14 11:04:57 2014
GPGPU-Sim uArch: Shader 14 finished CTA #0 (19112,0), 1 CTAs running
GPGPU-Sim uArch: core: 14, cta: 0 initialized @(19113,0)
GPGPU-Sim PTX: 4200000 instructions simulated : ctaid=(106,0,0) tid=(103,0,0)
GPGPU-Sim uArch: Shader 14 finished CTA #1 (19178,0), 1 CTAs running
GPGPU-Sim uArch: core: 14, cta: 1 initialized @(19179,0)
GPGPU-Sim uArch: Shader 3 finished CTA #1 (19180,0), 1 CTAs running
GPGPU-Sim uArch: core:  3, cta: 1 initialized @(19181,0)
GPGPU-Sim uArch: Shader 6 finished CTA #0 (19183,0), 1 CTAs running
GPGPU-Sim uArch: core:  6, cta: 0 initialized @(19184,0)
GPGPU-Sim uArch: Shader 3 finished CTA #0 (19197,0), 1 CTAs running
GPGPU-Sim uArch: core:  3, cta: 0 initialized @(19198,0)
GPGPU-Sim uArch: Shader 5 finished CTA #1 (19357,0), 1 CTAs running
GPGPU-Sim uArch: core:  5, cta: 1 initialized @(19358,0)
GPGPU-Sim uArch: Shader 11 finished CTA #1 (19371,0), 1 CTAs running
GPGPU-Sim uArch: core: 11, cta: 1 initialized @(19372,0)
GPGPU-Sim uArch: Shader 0 finished CTA #1 (19373,0), 1 CTAs running
GPGPU-Sim uArch: core:  0, cta: 1 initialized @(19374,0)
GPGPU-Sim uArch: Shader 11 finished CTA #0 (19388,0), 1 CTAs running
GPGPU-Sim uArch: core: 11, cta: 0 initialized @(19389,0)
GPGPU-Sim uArch: Shader 0 finished CTA #0 (19390,0), 1 CTAs running
GPGPU-Sim uArch: core:  0, cta: 0 initialized @(19391,0)
GPGPU-Sim PTX: 4300000 instructions simulated : ctaid=(97,0,0) tid=(383,0,0)
GPGPU-Sim uArch: cycles simulated: 19500  inst.: 4210867 (ipc=215.9) sim_rate=34515 (inst/sec) elapsed = 0:0:02:02 / Thu Aug 14 11:05:01 2014
GPGPU-Sim uArch: Shader 9 finished CTA #0 (19585,0), 1 CTAs running
GPGPU-Sim uArch: core:  9, cta: 0 initialized @(19586,0)
GPGPU-Sim PTX: 4400000 instructions simulated : ctaid=(109,0,0) tid=(191,0,0)
GPGPU-Sim uArch: Shader 9 finished CTA #1 (19644,0), 1 CTAs running
GPGPU-Sim uArch: core:  9, cta: 1 initialized @(19645,0)
GPGPU-Sim PTX: 4500000 instructions simulated : ctaid=(97,0,0) tid=(353,0,0)
GPGPU-Sim uArch: cycles simulated: 20000  inst.: 4427690 (ipc=221.4) sim_rate=35421 (inst/sec) elapsed = 0:0:02:05 / Thu Aug 14 11:05:04 2014
GPGPU-Sim uArch: Shader 13 finished CTA #1 (20071,0), 1 CTAs running
GPGPU-Sim uArch: core: 13, cta: 1 initialized @(20072,0)
GPGPU-Sim PTX: 4600000 instructions simulated : ctaid=(116,0,0) tid=(190,0,0)
GPGPU-Sim PTX: 4700000 instructions simulated : ctaid=(113,0,0) tid=(81,0,0)
GPGPU-Sim uArch: cycles simulated: 20500  inst.: 4565732 (ipc=222.7) sim_rate=35669 (inst/sec) elapsed = 0:0:02:08 / Thu Aug 14 11:05:07 2014
GPGPU-Sim uArch: cycles simulated: 21000  inst.: 4649921 (ipc=221.4) sim_rate=35768 (inst/sec) elapsed = 0:0:02:10 / Thu Aug 14 11:05:09 2014
GPGPU-Sim PTX: 4800000 instructions simulated : ctaid=(102,0,0) tid=(389,0,0)
GPGPU-Sim PTX: 4900000 instructions simulated : ctaid=(108,0,0) tid=(326,0,0)
GPGPU-Sim uArch: cycles simulated: 21500  inst.: 4803238 (ipc=223.4) sim_rate=36114 (inst/sec) elapsed = 0:0:02:13 / Thu Aug 14 11:05:12 2014
GPGPU-Sim PTX: 5000000 instructions simulated : ctaid=(113,0,0) tid=(483,0,0)
GPGPU-Sim uArch: cycles simulated: 22000  inst.: 4893320 (ipc=222.4) sim_rate=36246 (inst/sec) elapsed = 0:0:02:15 / Thu Aug 14 11:05:14 2014
GPGPU-Sim uArch: Shader 12 finished CTA #1 (22204,0), 1 CTAs running
GPGPU-Sim uArch: core: 12, cta: 1 initialized @(22205,0)
GPGPU-Sim PTX: 5100000 instructions simulated : ctaid=(106,0,0) tid=(364,0,0)
GPGPU-Sim uArch: Shader 12 finished CTA #0 (22280,0), 1 CTAs running
GPGPU-Sim uArch: core: 12, cta: 0 initialized @(22281,0)
GPGPU-Sim uArch: cycles simulated: 22500  inst.: 4987104 (ipc=221.6) sim_rate=36402 (inst/sec) elapsed = 0:0:02:17 / Thu Aug 14 11:05:16 2014
GPGPU-Sim PTX: 5200000 instructions simulated : ctaid=(103,0,0) tid=(224,0,0)
GPGPU-Sim uArch: cycles simulated: 23000  inst.: 5073590 (ipc=220.6) sim_rate=36239 (inst/sec) elapsed = 0:0:02:20 / Thu Aug 14 11:05:19 2014
GPGPU-Sim PTX: 5300000 instructions simulated : ctaid=(97,0,0) tid=(104,0,0)
GPGPU-Sim uArch: cycles simulated: 23500  inst.: 5144463 (ipc=218.9) sim_rate=36228 (inst/sec) elapsed = 0:0:02:22 / Thu Aug 14 11:05:21 2014
GPGPU-Sim uArch: Shader 1 finished CTA #0 (23881,0), 1 CTAs running
GPGPU-Sim uArch: core:  1, cta: 0 initialized @(23882,0)
GPGPU-Sim uArch: cycles simulated: 24000  inst.: 5212126 (ipc=217.2) sim_rate=36195 (inst/sec) elapsed = 0:0:02:24 / Thu Aug 14 11:05:23 2014
GPGPU-Sim uArch: Shader 10 finished CTA #1 (24071,0), 1 CTAs running
GPGPU-Sim uArch: core: 10, cta: 1 initialized @(24072,0)
GPGPU-Sim uArch: Shader 7 finished CTA #1 (24095,0), 1 CTAs running
GPGPU-Sim uArch: core:  7, cta: 1 initialized @(24096,0)
GPGPU-Sim uArch: Shader 10 finished CTA #0 (24130,0), 1 CTAs running
GPGPU-Sim uArch: core: 10, cta: 0 initialized @(24131,0)
GPGPU-Sim uArch: Shader 14 finished CTA #0 (24133,0), 1 CTAs running
GPGPU-Sim uArch: core: 14, cta: 0 initialized @(24134,0)
GPGPU-Sim uArch: Shader 6 finished CTA #0 (24135,0), 1 CTAs running
GPGPU-Sim uArch: core:  6, cta: 0 initialized @(24136,0)
GPGPU-Sim PTX: 5400000 instructions simulated : ctaid=(121,0,0) tid=(247,0,0)
GPGPU-Sim uArch: Shader 13 finished CTA #0 (24211,0), 1 CTAs running
GPGPU-Sim uArch: core: 13, cta: 0 initialized @(24212,0)
GPGPU-Sim uArch: Shader 2 finished CTA #0 (24219,0), 1 CTAs running
GPGPU-Sim uArch: core:  2, cta: 0 initialized @(24220,0)
GPGPU-Sim uArch: Shader 6 finished CTA #1 (24243,0), 1 CTAs running
GPGPU-Sim uArch: core:  6, cta: 1 initialized @(24244,0)
GPGPU-Sim uArch: Shader 4 finished CTA #1 (24285,0), 1 CTAs running
GPGPU-Sim uArch: core:  4, cta: 1 initialized @(24286,0)
GPGPU-Sim uArch: Shader 8 finished CTA #0 (24298,0), 1 CTAs running
GPGPU-Sim uArch: core:  8, cta: 0 initialized @(24299,0)
GPGPU-Sim uArch: Shader 4 finished CTA #0 (24302,0), 1 CTAs running
GPGPU-Sim uArch: core:  4, cta: 0 initialized @(24303,0)
GPGPU-Sim uArch: Shader 2 finished CTA #1 (24311,0), 1 CTAs running
GPGPU-Sim uArch: core:  2, cta: 1 initialized @(24312,0)
GPGPU-Sim uArch: Shader 8 finished CTA #1 (24355,0), 1 CTAs running
GPGPU-Sim uArch: core:  8, cta: 1 initialized @(24356,0)
GPGPU-Sim uArch: Shader 14 finished CTA #1 (24360,0), 1 CTAs running
GPGPU-Sim uArch: core: 14, cta: 1 initialized @(24361,0)
GPGPU-Sim uArch: Shader 0 finished CTA #1 (24390,0), 1 CTAs running
GPGPU-Sim uArch: core:  0, cta: 1 initialized @(24391,0)
GPGPU-Sim uArch: Shader 1 finished CTA #1 (24392,0), 1 CTAs running
GPGPU-Sim uArch: core:  1, cta: 1 initialized @(24393,0)
GPGPU-Sim uArch: Shader 3 finished CTA #1 (24394,0), 1 CTAs running
GPGPU-Sim uArch: core:  3, cta: 1 initialized @(24395,0)
GPGPU-Sim PTX: 5500000 instructions simulated : ctaid=(132,0,0) tid=(348,0,0)
GPGPU-Sim uArch: Shader 7 finished CTA #0 (24418,0), 1 CTAs running
GPGPU-Sim uArch: core:  7, cta: 0 initialized @(24419,0)
GPGPU-Sim uArch: Shader 0 finished CTA #0 (24493,0), 1 CTAs running
GPGPU-Sim uArch: core:  0, cta: 0 initialized @(24494,0)
GPGPU-Sim uArch: cycles simulated: 24500  inst.: 5381913 (ipc=219.7) sim_rate=36120 (inst/sec) elapsed = 0:0:02:29 / Thu Aug 14 11:05:28 2014
GPGPU-Sim uArch: Shader 3 finished CTA #0 (24502,0), 1 CTAs running
GPGPU-Sim uArch: core:  3, cta: 0 initialized @(24503,0)
GPGPU-Sim PTX: 5600000 instructions simulated : ctaid=(103,0,0) tid=(244,0,0)
GPGPU-Sim uArch: Shader 11 finished CTA #0 (24692,0), 1 CTAs running
GPGPU-Sim uArch: core: 11, cta: 0 initialized @(24693,0)
GPGPU-Sim uArch: Shader 9 finished CTA #1 (24722,0), 1 CTAs running
GPGPU-Sim uArch: core:  9, cta: 1 initialized @(24723,0)
GPGPU-Sim uArch: Shader 9 finished CTA #0 (24781,0), 1 CTAs running
GPGPU-Sim uArch: core:  9, cta: 0 initialized @(24782,0)
GPGPU-Sim PTX: 5700000 instructions simulated : ctaid=(134,0,0) tid=(73,0,0)
GPGPU-Sim uArch: Shader 5 finished CTA #1 (24825,0), 1 CTAs running
GPGPU-Sim uArch: core:  5, cta: 1 initialized @(24826,0)
GPGPU-Sim uArch: Shader 11 finished CTA #1 (24962,0), 1 CTAs running
GPGPU-Sim uArch: core: 11, cta: 1 initialized @(24963,0)
GPGPU-Sim uArch: cycles simulated: 25000  inst.: 5614389 (ipc=224.6) sim_rate=36695 (inst/sec) elapsed = 0:0:02:33 / Thu Aug 14 11:05:32 2014
GPGPU-Sim PTX: 5800000 instructions simulated : ctaid=(123,0,0) tid=(5,0,0)
GPGPU-Sim uArch: Shader 13 finished CTA #1 (25047,0), 1 CTAs running
GPGPU-Sim uArch: core: 13, cta: 1 initialized @(25048,0)
GPGPU-Sim uArch: Shader 5 finished CTA #0 (25077,0), 1 CTAs running
GPGPU-Sim uArch: core:  5, cta: 0 initialized @(25078,0)
GPGPU-Sim PTX: 5900000 instructions simulated : ctaid=(131,0,0) tid=(358,0,0)
GPGPU-Sim uArch: cycles simulated: 25500  inst.: 5794991 (ipc=227.3) sim_rate=37147 (inst/sec) elapsed = 0:0:02:36 / Thu Aug 14 11:05:35 2014
GPGPU-Sim PTX: 6000000 instructions simulated : ctaid=(121,0,0) tid=(209,0,0)
GPGPU-Sim uArch: cycles simulated: 26000  inst.: 5894636 (ipc=226.7) sim_rate=37307 (inst/sec) elapsed = 0:0:02:38 / Thu Aug 14 11:05:37 2014
GPGPU-Sim PTX: 6100000 instructions simulated : ctaid=(128,0,0) tid=(188,0,0)
GPGPU-Sim uArch: cycles simulated: 26500  inst.: 5994343 (ipc=226.2) sim_rate=37231 (inst/sec) elapsed = 0:0:02:41 / Thu Aug 14 11:05:40 2014
GPGPU-Sim PTX: 6200000 instructions simulated : ctaid=(130,0,0) tid=(31,0,0)
GPGPU-Sim PTX: 6300000 instructions simulated : ctaid=(136,0,0) tid=(254,0,0)
GPGPU-Sim uArch: cycles simulated: 27000  inst.: 6137518 (ipc=227.3) sim_rate=37423 (inst/sec) elapsed = 0:0:02:44 / Thu Aug 14 11:05:43 2014
GPGPU-Sim PTX: 6400000 instructions simulated : ctaid=(141,0,0) tid=(362,0,0)
GPGPU-Sim uArch: Shader 12 finished CTA #1 (27456,0), 1 CTAs running
GPGPU-Sim uArch: core: 12, cta: 1 initialized @(27457,0)
GPGPU-Sim uArch: cycles simulated: 27500  inst.: 6221818 (ipc=226.2) sim_rate=37480 (inst/sec) elapsed = 0:0:02:46 / Thu Aug 14 11:05:45 2014
GPGPU-Sim uArch: Shader 12 finished CTA #0 (27555,0), 1 CTAs running
GPGPU-Sim uArch: core: 12, cta: 0 initialized @(27556,0)
GPGPU-Sim PTX: 6500000 instructions simulated : ctaid=(151,0,0) tid=(147,0,0)
GPGPU-Sim uArch: cycles simulated: 28000  inst.: 6325122 (ipc=225.9) sim_rate=37426 (inst/sec) elapsed = 0:0:02:49 / Thu Aug 14 11:05:48 2014
GPGPU-Sim PTX: 6600000 instructions simulated : ctaid=(133,0,0) tid=(71,0,0)
GPGPU-Sim uArch: cycles simulated: 28500  inst.: 6408415 (ipc=224.9) sim_rate=37258 (inst/sec) elapsed = 0:0:02:52 / Thu Aug 14 11:05:51 2014
GPGPU-Sim uArch: cycles simulated: 29000  inst.: 6482368 (ipc=223.5) sim_rate=37042 (inst/sec) elapsed = 0:0:02:55 / Thu Aug 14 11:05:54 2014
GPGPU-Sim uArch: Shader 10 finished CTA #1 (29118,0), 1 CTAs running
GPGPU-Sim uArch: core: 10, cta: 1 initialized @(29119,0)
GPGPU-Sim PTX: 6700000 instructions simulated : ctaid=(152,0,0) tid=(22,0,0)
GPGPU-Sim uArch: Shader 10 finished CTA #0 (29315,0), 1 CTAs running
GPGPU-Sim uArch: core: 10, cta: 0 initialized @(29316,0)
GPGPU-Sim uArch: Shader 3 finished CTA #1 (29321,0), 1 CTAs running
GPGPU-Sim uArch: core:  3, cta: 1 initialized @(29322,0)
GPGPU-Sim uArch: Shader 2 finished CTA #1 (29461,0), 1 CTAs running
GPGPU-Sim uArch: core:  2, cta: 1 initialized @(29462,0)
GPGPU-Sim uArch: Shader 7 finished CTA #0 (29465,0), 1 CTAs running
GPGPU-Sim uArch: core:  7, cta: 0 initialized @(29466,0)
GPGPU-Sim uArch: Shader 0 finished CTA #1 (29467,0), 1 CTAs running
GPGPU-Sim uArch: core:  0, cta: 1 initialized @(29468,0)
GPGPU-Sim uArch: Shader 8 finished CTA #1 (29469,0), 1 CTAs running
GPGPU-Sim uArch: core:  8, cta: 1 initialized @(29470,0)
GPGPU-Sim uArch: Shader 4 finished CTA #1 (29471,0), 1 CTAs running
GPGPU-Sim uArch: core:  4, cta: 1 initialized @(29472,0)
GPGPU-Sim uArch: Shader 2 finished CTA #0 (29473,0), 1 CTAs running
GPGPU-Sim uArch: core:  2, cta: 0 initialized @(29474,0)
GPGPU-Sim uArch: Shader 3 finished CTA #0 (29481,0), 1 CTAs running
GPGPU-Sim uArch: core:  3, cta: 0 initialized @(29482,0)
GPGPU-Sim uArch: Shader 8 finished CTA #0 (29486,0), 1 CTAs running
GPGPU-Sim uArch: core:  8, cta: 0 initialized @(29487,0)
GPGPU-Sim uArch: cycles simulated: 29500  inst.: 6554703 (ipc=222.2) sim_rate=36618 (inst/sec) elapsed = 0:0:02:59 / Thu Aug 14 11:05:58 2014
GPGPU-Sim uArch: Shader 0 finished CTA #0 (29502,0), 1 CTAs running
GPGPU-Sim uArch: core:  0, cta: 0 initialized @(29503,0)
GPGPU-Sim uArch: Shader 4 finished CTA #0 (29537,0), 1 CTAs running
GPGPU-Sim uArch: core:  4, cta: 0 initialized @(29538,0)
GPGPU-Sim PTX: 6800000 instructions simulated : ctaid=(152,0,0) tid=(422,0,0)
GPGPU-Sim uArch: Shader 14 finished CTA #0 (29608,0), 1 CTAs running
GPGPU-Sim uArch: core: 14, cta: 0 initialized @(29609,0)
GPGPU-Sim uArch: Shader 1 finished CTA #1 (29660,0), 1 CTAs running
GPGPU-Sim uArch: core:  1, cta: 1 initialized @(29661,0)
GPGPU-Sim uArch: Shader 6 finished CTA #1 (29767,0), 1 CTAs running
GPGPU-Sim uArch: core:  6, cta: 1 initialized @(29768,0)
GPGPU-Sim uArch: Shader 6 finished CTA #0 (29778,0), 1 CTAs running
GPGPU-Sim uArch: core:  6, cta: 0 initialized @(29779,0)
GPGPU-Sim PTX: 6900000 instructions simulated : ctaid=(163,0,0) tid=(48,0,0)
GPGPU-Sim uArch: Shader 11 finished CTA #0 (29799,0), 1 CTAs running
GPGPU-Sim uArch: core: 11, cta: 0 initialized @(29800,0)
GPGPU-Sim uArch: Shader 7 finished CTA #1 (29810,0), 1 CTAs running
GPGPU-Sim uArch: core:  7, cta: 1 initialized @(29811,0)
GPGPU-Sim uArch: Shader 1 finished CTA #0 (29875,0), 1 CTAs running
GPGPU-Sim uArch: core:  1, cta: 0 initialized @(29876,0)
GPGPU-Sim uArch: cycles simulated: 30000  inst.: 6779484 (ipc=226.0) sim_rate=36845 (inst/sec) elapsed = 0:0:03:04 / Thu Aug 14 11:06:03 2014
GPGPU-Sim PTX: 7000000 instructions simulated : ctaid=(158,0,0) tid=(319,0,0)
GPGPU-Sim uArch: Shader 5 finished CTA #0 (30024,0), 1 CTAs running
GPGPU-Sim uArch: core:  5, cta: 0 initialized @(30025,0)
GPGPU-Sim uArch: Shader 13 finished CTA #0 (30044,0), 1 CTAs running
GPGPU-Sim uArch: core: 13, cta: 0 initialized @(30045,0)
GPGPU-Sim uArch: Shader 13 finished CTA #1 (30061,0), 1 CTAs running
GPGPU-Sim uArch: core: 13, cta: 1 initialized @(30062,0)
GPGPU-Sim uArch: Shader 9 finished CTA #0 (30116,0), 1 CTAs running
GPGPU-Sim uArch: core:  9, cta: 0 initialized @(30117,0)
GPGPU-Sim uArch: Shader 14 finished CTA #1 (30213,0), 1 CTAs running
GPGPU-Sim uArch: core: 14, cta: 1 initialized @(30214,0)
GPGPU-Sim PTX: 7100000 instructions simulated : ctaid=(171,0,0) tid=(334,0,0)
GPGPU-Sim uArch: Shader 9 finished CTA #1 (30260,0), 1 CTAs running
GPGPU-Sim uArch: core:  9, cta: 1 initialized @(30261,0)
GPGPU-Sim uArch: Shader 11 finished CTA #1 (30270,0), 1 CTAs running
GPGPU-Sim uArch: core: 11, cta: 1 initialized @(30271,0)
GPGPU-Sim uArch: Shader 5 finished CTA #1 (30309,0), 1 CTAs running
GPGPU-Sim uArch: core:  5, cta: 1 initialized @(30310,0)
GPGPU-Sim PTX: 7200000 instructions simulated : ctaid=(170,0,0) tid=(176,0,0)
GPGPU-Sim uArch: cycles simulated: 30500  inst.: 6996143 (ipc=229.4) sim_rate=37016 (inst/sec) elapsed = 0:0:03:09 / Thu Aug 14 11:06:08 2014
GPGPU-Sim PTX: 7300000 instructions simulated : ctaid=(172,0,0) tid=(64,0,0)
GPGPU-Sim uArch: cycles simulated: 31000  inst.: 7128305 (ipc=229.9) sim_rate=37320 (inst/sec) elapsed = 0:0:03:11 / Thu Aug 14 11:06:10 2014
GPGPU-Sim PTX: 7400000 instructions simulated : ctaid=(176,0,0) tid=(162,0,0)
GPGPU-Sim uArch: cycles simulated: 31500  inst.: 7233002 (ipc=229.6) sim_rate=37476 (inst/sec) elapsed = 0:0:03:13 / Thu Aug 14 11:06:12 2014
GPGPU-Sim PTX: 7500000 instructions simulated : ctaid=(156,0,0) tid=(192,0,0)
GPGPU-Sim uArch: cycles simulated: 32000  inst.: 7333522 (ipc=229.2) sim_rate=37607 (inst/sec) elapsed = 0:0:03:15 / Thu Aug 14 11:06:14 2014
GPGPU-Sim PTX: 7600000 instructions simulated : ctaid=(162,0,0) tid=(440,0,0)
GPGPU-Sim uArch: Shader 12 finished CTA #1 (32420,0), 1 CTAs running
GPGPU-Sim uArch: core: 12, cta: 1 initialized @(32421,0)
GPGPU-Sim uArch: Shader 12 finished CTA #0 (32437,0), 1 CTAs running
GPGPU-Sim uArch: core: 12, cta: 0 initialized @(32438,0)
GPGPU-Sim uArch: cycles simulated: 32500  inst.: 7450341 (ipc=229.2) sim_rate=38011 (inst/sec) elapsed = 0:0:03:16 / Thu Aug 14 11:06:15 2014
GPGPU-Sim PTX: 7700000 instructions simulated : ctaid=(180,0,0) tid=(316,0,0)
GPGPU-Sim PTX: 7800000 instructions simulated : ctaid=(181,0,0) tid=(389,0,0)
GPGPU-Sim uArch: cycles simulated: 33000  inst.: 7567444 (ipc=229.3) sim_rate=38219 (inst/sec) elapsed = 0:0:03:18 / Thu Aug 14 11:06:17 2014
GPGPU-Sim uArch: cycles simulated: 33500  inst.: 7655241 (ipc=228.5) sim_rate=38276 (inst/sec) elapsed = 0:0:03:20 / Thu Aug 14 11:06:19 2014
GPGPU-Sim PTX: 7900000 instructions simulated : ctaid=(177,0,0) tid=(155,0,0)
GPGPU-Sim uArch: Shader 10 finished CTA #0 (33954,0), 1 CTAs running
GPGPU-Sim uArch: core: 10, cta: 0 initialized @(33955,0)
GPGPU-Sim uArch: cycles simulated: 34000  inst.: 7729181 (ipc=227.3) sim_rate=38263 (inst/sec) elapsed = 0:0:03:22 / Thu Aug 14 11:06:21 2014
GPGPU-Sim uArch: Shader 10 finished CTA #1 (34053,0), 1 CTAs running
GPGPU-Sim uArch: core: 10, cta: 1 initialized @(34054,0)
GPGPU-Sim PTX: 8000000 instructions simulated : ctaid=(166,0,0) tid=(149,0,0)
GPGPU-Sim uArch: cycles simulated: 34500  inst.: 7816336 (ipc=226.6) sim_rate=38315 (inst/sec) elapsed = 0:0:03:24 / Thu Aug 14 11:06:23 2014
GPGPU-Sim uArch: Shader 0 finished CTA #1 (34509,0), 1 CTAs running
GPGPU-Sim uArch: core:  0, cta: 1 initialized @(34510,0)
GPGPU-Sim uArch: Shader 7 finished CTA #0 (34629,0), 1 CTAs running
GPGPU-Sim uArch: core:  7, cta: 0 initialized @(34630,0)
GPGPU-Sim PTX: 8100000 instructions simulated : ctaid=(184,0,0) tid=(344,0,0)
GPGPU-Sim uArch: Shader 1 finished CTA #1 (34969,0), 1 CTAs running
GPGPU-Sim uArch: core:  1, cta: 1 initialized @(34970,0)
GPGPU-Sim uArch: cycles simulated: 35000  inst.: 7904271 (ipc=225.8) sim_rate=38370 (inst/sec) elapsed = 0:0:03:26 / Thu Aug 14 11:06:25 2014
GPGPU-Sim uArch: Shader 6 finished CTA #1 (35035,0), 1 CTAs running
GPGPU-Sim uArch: core:  6, cta: 1 initialized @(35036,0)
GPGPU-Sim uArch: Shader 8 finished CTA #0 (35037,0), 1 CTAs running
GPGPU-Sim uArch: core:  8, cta: 0 initialized @(35038,0)
GPGPU-Sim uArch: Shader 3 finished CTA #0 (35039,0), 1 CTAs running
GPGPU-Sim uArch: core:  3, cta: 0 initialized @(35040,0)
GPGPU-Sim uArch: Shader 0 finished CTA #0 (35041,0), 1 CTAs running
GPGPU-Sim uArch: core:  0, cta: 0 initialized @(35042,0)
GPGPU-Sim uArch: Shader 1 finished CTA #0 (35045,0), 1 CTAs running
GPGPU-Sim uArch: core:  1, cta: 0 initialized @(35046,0)
GPGPU-Sim uArch: Shader 6 finished CTA #0 (35052,0), 1 CTAs running
GPGPU-Sim uArch: core:  6, cta: 0 initialized @(35053,0)
GPGPU-Sim uArch: Shader 3 finished CTA #1 (35056,0), 1 CTAs running
GPGPU-Sim uArch: core:  3, cta: 1 initialized @(35057,0)
GPGPU-Sim uArch: Shader 13 finished CTA #1 (35095,0), 1 CTAs running
GPGPU-Sim uArch: core: 13, cta: 1 initialized @(35096,0)
GPGPU-Sim uArch: Shader 8 finished CTA #1 (35103,0), 1 CTAs running
GPGPU-Sim uArch: core:  8, cta: 1 initialized @(35104,0)
GPGPU-Sim uArch: Shader 13 finished CTA #0 (35138,0), 1 CTAs running
GPGPU-Sim uArch: core: 13, cta: 0 initialized @(35139,0)
GPGPU-Sim PTX: 8200000 instructions simulated : ctaid=(189,0,0) tid=(225,0,0)
GPGPU-Sim uArch: Shader 4 finished CTA #0 (35196,0), 1 CTAs running
GPGPU-Sim uArch: core:  4, cta: 0 initialized @(35197,0)
GPGPU-Sim uArch: Shader 7 finished CTA #1 (35199,0), 1 CTAs running
GPGPU-Sim uArch: core:  7, cta: 1 initialized @(35200,0)
GPGPU-Sim uArch: Shader 2 finished CTA #1 (35254,0), 1 CTAs running
GPGPU-Sim uArch: core:  2, cta: 1 initialized @(35255,0)
GPGPU-Sim uArch: Shader 2 finished CTA #0 (35279,0), 1 CTAs running
GPGPU-Sim uArch: core:  2, cta: 0 initialized @(35280,0)
GPGPU-Sim PTX: 8300000 instructions simulated : ctaid=(200,0,0) tid=(248,0,0)
GPGPU-Sim uArch: Shader 4 finished CTA #1 (35375,0), 1 CTAs running
GPGPU-Sim uArch: core:  4, cta: 1 initialized @(35376,0)
GPGPU-Sim uArch: Shader 9 finished CTA #0 (35377,0), 1 CTAs running
GPGPU-Sim uArch: core:  9, cta: 0 initialized @(35378,0)
GPGPU-Sim uArch: Shader 5 finished CTA #1 (35384,0), 1 CTAs running
GPGPU-Sim uArch: core:  5, cta: 1 initialized @(35385,0)
GPGPU-Sim uArch: Shader 9 finished CTA #1 (35415,0), 1 CTAs running
GPGPU-Sim uArch: core:  9, cta: 1 initialized @(35416,0)
GPGPU-Sim uArch: cycles simulated: 35500  inst.: 8110808 (ipc=228.5) sim_rate=38622 (inst/sec) elapsed = 0:0:03:30 / Thu Aug 14 11:06:29 2014
GPGPU-Sim uArch: Shader 5 finished CTA #0 (35544,0), 1 CTAs running
GPGPU-Sim uArch: core:  5, cta: 0 initialized @(35545,0)
GPGPU-Sim PTX: 8400000 instructions simulated : ctaid=(199,0,0) tid=(110,0,0)
GPGPU-Sim uArch: Shader 11 finished CTA #0 (35593,0), 1 CTAs running
GPGPU-Sim uArch: core: 11, cta: 0 initialized @(35594,0)
GPGPU-Sim uArch: Shader 11 finished CTA #1 (35659,0), 1 CTAs running
GPGPU-Sim uArch: core: 11, cta: 1 initialized @(35660,0)
GPGPU-Sim uArch: Shader 14 finished CTA #0 (35718,0), 1 CTAs running
GPGPU-Sim uArch: core: 14, cta: 0 initialized @(35719,0)
GPGPU-Sim PTX: 8500000 instructions simulated : ctaid=(196,0,0) tid=(485,0,0)
GPGPU-Sim uArch: Shader 14 finished CTA #1 (35873,0), 1 CTAs running
GPGPU-Sim uArch: core: 14, cta: 1 initialized @(35874,0)
GPGPU-Sim uArch: cycles simulated: 36000  inst.: 8297668 (ipc=230.5) sim_rate=38956 (inst/sec) elapsed = 0:0:03:33 / Thu Aug 14 11:06:32 2014
GPGPU-Sim PTX: 8600000 instructions simulated : ctaid=(187,0,0) tid=(421,0,0)
GPGPU-Sim PTX: 8700000 instructions simulated : ctaid=(197,0,0) tid=(452,0,0)
GPGPU-Sim uArch: cycles simulated: 36500  inst.: 8451245 (ipc=231.5) sim_rate=39308 (inst/sec) elapsed = 0:0:03:35 / Thu Aug 14 11:06:34 2014
GPGPU-Sim PTX: 8800000 instructions simulated : ctaid=(200,0,0) tid=(10,0,0)
GPGPU-Sim uArch: cycles simulated: 37000  inst.: 8543592 (ipc=230.9) sim_rate=39371 (inst/sec) elapsed = 0:0:03:37 / Thu Aug 14 11:06:36 2014
GPGPU-Sim PTX: 8900000 instructions simulated : ctaid=(206,0,0) tid=(107,0,0)
GPGPU-Sim uArch: cycles simulated: 37500  inst.: 8639394 (ipc=230.4) sim_rate=39449 (inst/sec) elapsed = 0:0:03:39 / Thu Aug 14 11:06:38 2014
GPGPU-Sim uArch: Shader 12 finished CTA #1 (37637,0), 1 CTAs running
GPGPU-Sim uArch: core: 12, cta: 1 initialized @(37638,0)
GPGPU-Sim uArch: Shader 12 finished CTA #0 (37815,0), 1 CTAs running
GPGPU-Sim uArch: core: 12, cta: 0 initialized @(37816,0)
GPGPU-Sim PTX: 9000000 instructions simulated : ctaid=(200,0,0) tid=(323,0,0)
GPGPU-Sim uArch: cycles simulated: 38000  inst.: 8796599 (ipc=231.5) sim_rate=39803 (inst/sec) elapsed = 0:0:03:41 / Thu Aug 14 11:06:40 2014
GPGPU-Sim PTX: 9100000 instructions simulated : ctaid=(209,0,0) tid=(9,0,0)
GPGPU-Sim uArch: cycles simulated: 38500  inst.: 8886074 (ipc=230.8) sim_rate=39847 (inst/sec) elapsed = 0:0:03:43 / Thu Aug 14 11:06:42 2014
GPGPU-Sim PTX: 9200000 instructions simulated : ctaid=(185,0,0) tid=(302,0,0)
GPGPU-Sim uArch: cycles simulated: 39000  inst.: 8977851 (ipc=230.2) sim_rate=40079 (inst/sec) elapsed = 0:0:03:44 / Thu Aug 14 11:06:43 2014
GPGPU-Sim PTX: 9300000 instructions simulated : ctaid=(197,0,0) tid=(11,0,0)
GPGPU-Sim uArch: Shader 10 finished CTA #1 (39482,0), 1 CTAs running
GPGPU-Sim uArch: core: 10, cta: 1 initialized @(39483,0)
GPGPU-Sim uArch: cycles simulated: 39500  inst.: 9034488 (ipc=228.7) sim_rate=39975 (inst/sec) elapsed = 0:0:03:46 / Thu Aug 14 11:06:45 2014
GPGPU-Sim uArch: Shader 10 finished CTA #0 (39581,0), 1 CTAs running
GPGPU-Sim uArch: core: 10, cta: 0 initialized @(39582,0)
GPGPU-Sim uArch: Shader 0 finished CTA #1 (39703,0), 1 CTAs running
GPGPU-Sim uArch: core:  0, cta: 1 initialized @(39704,0)
GPGPU-Sim uArch: Shader 0 finished CTA #0 (39786,0), 1 CTAs running
GPGPU-Sim uArch: core:  0, cta: 0 initialized @(39787,0)
GPGPU-Sim PTX: 9400000 instructions simulated : ctaid=(207,0,0) tid=(139,0,0)
GPGPU-Sim uArch: cycles simulated: 40000  inst.: 9134200 (ipc=228.4) sim_rate=40062 (inst/sec) elapsed = 0:0:03:48 / Thu Aug 14 11:06:47 2014
GPGPU-Sim uArch: Shader 1 finished CTA #0 (40483,0), 1 CTAs running
GPGPU-Sim uArch: core:  1, cta: 0 initialized @(40484,0)
GPGPU-Sim uArch: Shader 7 finished CTA #0 (40494,0), 1 CTAs running
GPGPU-Sim uArch: core:  7, cta: 0 initialized @(40495,0)
GPGPU-Sim uArch: cycles simulated: 40500  inst.: 9211603 (ipc=227.4) sim_rate=39877 (inst/sec) elapsed = 0:0:03:51 / Thu Aug 14 11:06:50 2014
GPGPU-Sim uArch: Shader 1 finished CTA #1 (40500,0), 1 CTAs running
GPGPU-Sim uArch: core:  1, cta: 1 initialized @(40501,0)
GPGPU-Sim PTX: 9500000 instructions simulated : ctaid=(210,0,0) tid=(364,0,0)
GPGPU-Sim uArch: Shader 8 finished CTA #0 (40553,0), 1 CTAs running
GPGPU-Sim uArch: core:  8, cta: 0 initialized @(40554,0)
GPGPU-Sim uArch: Shader 4 finished CTA #1 (40559,0), 1 CTAs running
GPGPU-Sim uArch: core:  4, cta: 1 initialized @(40560,0)
GPGPU-Sim uArch: Shader 13 finished CTA #1 (40575,0), 1 CTAs running
GPGPU-Sim uArch: core: 13, cta: 1 initialized @(40576,0)
GPGPU-Sim uArch: Shader 3 finished CTA #1 (40577,0), 1 CTAs running
GPGPU-Sim uArch: core:  3, cta: 1 initialized @(40578,0)
GPGPU-Sim uArch: Shader 8 finished CTA #1 (40579,0), 1 CTAs running
GPGPU-Sim uArch: core:  8, cta: 1 initialized @(40580,0)
GPGPU-Sim uArch: Shader 6 finished CTA #0 (40581,0), 1 CTAs running
GPGPU-Sim uArch: core:  6, cta: 0 initialized @(40582,0)
GPGPU-Sim uArch: Shader 11 finished CTA #0 (40587,0), 1 CTAs running
GPGPU-Sim uArch: core: 11, cta: 0 initialized @(40588,0)
GPGPU-Sim uArch: Shader 13 finished CTA #0 (40609,0), 1 CTAs running
GPGPU-Sim uArch: core: 13, cta: 0 initialized @(40610,0)
GPGPU-Sim uArch: Shader 2 finished CTA #0 (40629,0), 1 CTAs running
GPGPU-Sim uArch: core:  2, cta: 0 initialized @(40630,0)
GPGPU-Sim uArch: Shader 5 finished CTA #1 (40635,0), 1 CTAs running
GPGPU-Sim uArch: core:  5, cta: 1 initialized @(40636,0)
GPGPU-Sim uArch: Shader 2 finished CTA #1 (40646,0), 1 CTAs running
GPGPU-Sim uArch: core:  2, cta: 1 initialized @(40647,0)
GPGPU-Sim uArch: Shader 6 finished CTA #1 (40647,0), 1 CTAs running
GPGPU-Sim uArch: core:  6, cta: 1 initialized @(40648,0)
GPGPU-Sim uArch: Shader 4 finished CTA #0 (40651,0), 1 CTAs running
GPGPU-Sim uArch: core:  4, cta: 0 initialized @(40652,0)
GPGPU-Sim uArch: Shader 5 finished CTA #0 (40660,0), 1 CTAs running
GPGPU-Sim uArch: core:  5, cta: 0 initialized @(40661,0)
GPGPU-Sim PTX: 9600000 instructions simulated : ctaid=(226,0,0) tid=(374,0,0)
GPGPU-Sim uArch: Shader 9 finished CTA #0 (40749,0), 1 CTAs running
GPGPU-Sim uArch: core:  9, cta: 0 initialized @(40750,0)
GPGPU-Sim uArch: Shader 11 finished CTA #1 (40756,0), 1 CTAs running
GPGPU-Sim uArch: core: 11, cta: 1 initialized @(40757,0)
GPGPU-Sim uArch: Shader 9 finished CTA #1 (40766,0), 1 CTAs running
GPGPU-Sim uArch: core:  9, cta: 1 initialized @(40767,0)
GPGPU-Sim uArch: Shader 3 finished CTA #0 (40885,0), 1 CTAs running
GPGPU-Sim uArch: core:  3, cta: 0 initialized @(40886,0)
GPGPU-Sim PTX: 9700000 instructions simulated : ctaid=(217,0,0) tid=(313,0,0)
GPGPU-Sim uArch: cycles simulated: 41000  inst.: 9450872 (ipc=230.5) sim_rate=39877 (inst/sec) elapsed = 0:0:03:57 / Thu Aug 14 11:06:56 2014
GPGPU-Sim uArch: Shader 7 finished CTA #1 (41022,0), 1 CTAs running
GPGPU-Sim uArch: core:  7, cta: 1 initialized @(41023,0)
GPGPU-Sim PTX: 9800000 instructions simulated : ctaid=(224,0,0) tid=(210,0,0)
GPGPU-Sim uArch: Shader 14 finished CTA #0 (41211,0), 1 CTAs running
GPGPU-Sim uArch: core: 14, cta: 0 initialized @(41212,0)
GPGPU-Sim uArch: Shader 14 finished CTA #1 (41270,0), 1 CTAs running
GPGPU-Sim uArch: core: 14, cta: 1 initialized @(41271,0)
GPGPU-Sim PTX: 9900000 instructions simulated : ctaid=(229,0,0) tid=(105,0,0)
GPGPU-Sim uArch: cycles simulated: 41500  inst.: 9638742 (ipc=232.3) sim_rate=40161 (inst/sec) elapsed = 0:0:04:00 / Thu Aug 14 11:06:59 2014
GPGPU-Sim PTX: 10000000 instructions simulated : ctaid=(227,0,0) tid=(317,0,0)
GPGPU-Sim uArch: cycles simulated: 42000  inst.: 9787527 (ipc=233.0) sim_rate=40277 (inst/sec) elapsed = 0:0:04:03 / Thu Aug 14 11:07:02 2014
GPGPU-Sim PTX: 10100000 instructions simulated : ctaid=(222,0,0) tid=(27,0,0)
GPGPU-Sim uArch: cycles simulated: 42500  inst.: 9889403 (ipc=232.7) sim_rate=40200 (inst/sec) elapsed = 0:0:04:06 / Thu Aug 14 11:07:05 2014
GPGPU-Sim PTX: 10200000 instructions simulated : ctaid=(233,0,0) tid=(159,0,0)
GPGPU-Sim PTX: 10300000 instructions simulated : ctaid=(225,0,0) tid=(325,0,0)
GPGPU-Sim uArch: cycles simulated: 43000  inst.: 9993594 (ipc=232.4) sim_rate=40296 (inst/sec) elapsed = 0:0:04:08 / Thu Aug 14 11:07:07 2014
GPGPU-Sim uArch: Shader 12 finished CTA #0 (43031,0), 1 CTAs running
GPGPU-Sim uArch: core: 12, cta: 0 initialized @(43032,0)
GPGPU-Sim uArch: Shader 12 finished CTA #1 (43112,0), 1 CTAs running
GPGPU-Sim uArch: core: 12, cta: 1 initialized @(43113,0)
GPGPU-Sim PTX: 10400000 instructions simulated : ctaid=(240,0,0) tid=(192,0,0)
GPGPU-Sim uArch: cycles simulated: 43500  inst.: 10125828 (ipc=232.8) sim_rate=40341 (inst/sec) elapsed = 0:0:04:11 / Thu Aug 14 11:07:10 2014
GPGPU-Sim PTX: 10500000 instructions simulated : ctaid=(234,0,0) tid=(16,0,0)
GPGPU-Sim uArch: cycles simulated: 44000  inst.: 10209826 (ipc=232.0) sim_rate=40355 (inst/sec) elapsed = 0:0:04:13 / Thu Aug 14 11:07:12 2014
GPGPU-Sim PTX: 10600000 instructions simulated : ctaid=(233,0,0) tid=(309,0,0)
GPGPU-Sim uArch: cycles simulated: 44500  inst.: 10293650 (ipc=231.3) sim_rate=40209 (inst/sec) elapsed = 0:0:04:16 / Thu Aug 14 11:07:15 2014
GPGPU-Sim uArch: Shader 10 finished CTA #0 (44622,0), 1 CTAs running
GPGPU-Sim uArch: core: 10, cta: 0 initialized @(44623,0)
GPGPU-Sim uArch: Shader 10 finished CTA #1 (44791,0), 1 CTAs running
GPGPU-Sim uArch: core: 10, cta: 1 initialized @(44792,0)
GPGPU-Sim uArch: cycles simulated: 45000  inst.: 10373705 (ipc=230.5) sim_rate=40052 (inst/sec) elapsed = 0:0:04:19 / Thu Aug 14 11:07:18 2014
GPGPU-Sim PTX: 10700000 instructions simulated : ctaid=(243,0,0) tid=(390,0,0)
GPGPU-Sim uArch: Shader 0 finished CTA #0 (45024,0), 1 CTAs running
GPGPU-Sim uArch: core:  0, cta: 0 initialized @(45025,0)
GPGPU-Sim uArch: Shader 0 finished CTA #1 (45123,0), 1 CTAs running
GPGPU-Sim uArch: core:  0, cta: 1 initialized @(45124,0)
GPGPU-Sim uArch: Shader 1 finished CTA #1 (45296,0), 1 CTAs running
GPGPU-Sim uArch: core:  1, cta: 1 initialized @(45297,0)
GPGPU-Sim uArch: Shader 1 finished CTA #0 (45362,0), 1 CTAs running
GPGPU-Sim uArch: core:  1, cta: 0 initialized @(45363,0)
GPGPU-Sim PTX: 10800000 instructions simulated : ctaid=(243,0,0) tid=(468,0,0)
GPGPU-Sim uArch: cycles simulated: 45500  inst.: 10482225 (ipc=230.4) sim_rate=39856 (inst/sec) elapsed = 0:0:04:23 / Thu Aug 14 11:07:22 2014
GPGPU-Sim uArch: Shader 6 finished CTA #1 (45755,0), 1 CTAs running
GPGPU-Sim uArch: core:  6, cta: 1 initialized @(45756,0)
GPGPU-Sim uArch: Shader 8 finished CTA #0 (45795,0), 1 CTAs running
GPGPU-Sim uArch: core:  8, cta: 0 initialized @(45796,0)
GPGPU-Sim uArch: Shader 5 finished CTA #0 (45797,0), 1 CTAs running
GPGPU-Sim uArch: core:  5, cta: 0 initialized @(45798,0)
GPGPU-Sim uArch: Shader 7 finished CTA #0 (45799,0), 1 CTAs running
GPGPU-Sim uArch: core:  7, cta: 0 initialized @(45800,0)
GPGPU-Sim uArch: Shader 2 finished CTA #1 (45803,0), 1 CTAs running
GPGPU-Sim uArch: core:  2, cta: 1 initialized @(45804,0)
GPGPU-Sim uArch: Shader 8 finished CTA #1 (45812,0), 1 CTAs running
GPGPU-Sim uArch: core:  8, cta: 1 initialized @(45813,0)
GPGPU-Sim uArch: Shader 9 finished CTA #1 (45875,0), 1 CTAs running
GPGPU-Sim uArch: core:  9, cta: 1 initialized @(45876,0)
GPGPU-Sim PTX: 10900000 instructions simulated : ctaid=(231,0,0) tid=(98,0,0)
GPGPU-Sim uArch: Shader 2 finished CTA #0 (45902,0), 1 CTAs running
GPGPU-Sim uArch: core:  2, cta: 0 initialized @(45903,0)
GPGPU-Sim uArch: Shader 11 finished CTA #1 (45907,0), 1 CTAs running
GPGPU-Sim uArch: core: 11, cta: 1 initialized @(45908,0)
GPGPU-Sim uArch: Shader 5 finished CTA #1 (45938,0), 1 CTAs running
GPGPU-Sim uArch: core:  5, cta: 1 initialized @(45939,0)
GPGPU-Sim uArch: Shader 6 finished CTA #0 (45949,0), 1 CTAs running
GPGPU-Sim uArch: core:  6, cta: 0 initialized @(45950,0)
GPGPU-Sim uArch: Shader 3 finished CTA #1 (45955,0), 1 CTAs running
GPGPU-Sim uArch: core:  3, cta: 1 initialized @(45956,0)
GPGPU-Sim uArch: Shader 4 finished CTA #1 (45959,0), 1 CTAs running
GPGPU-Sim uArch: core:  4, cta: 1 initialized @(45960,0)
GPGPU-Sim uArch: Shader 11 finished CTA #0 (45990,0), 1 CTAs running
GPGPU-Sim uArch: core: 11, cta: 0 initialized @(45991,0)
GPGPU-Sim uArch: cycles simulated: 46000  inst.: 10621544 (ipc=230.9) sim_rate=39781 (inst/sec) elapsed = 0:0:04:27 / Thu Aug 14 11:07:26 2014
GPGPU-Sim uArch: Shader 14 finished CTA #0 (46013,0), 1 CTAs running
GPGPU-Sim uArch: core: 14, cta: 0 initialized @(46014,0)
GPGPU-Sim PTX: 11000000 instructions simulated : ctaid=(249,0,0) tid=(99,0,0)
GPGPU-Sim uArch: Shader 13 finished CTA #1 (46081,0), 1 CTAs running
GPGPU-Sim uArch: core: 13, cta: 1 initialized @(46082,0)
GPGPU-Sim uArch: Shader 9 finished CTA #0 (46104,0), 1 CTAs running
GPGPU-Sim uArch: core:  9, cta: 0 initialized @(46105,0)
GPGPU-Sim uArch: Shader 13 finished CTA #0 (46180,0), 1 CTAs running
GPGPU-Sim uArch: core: 13, cta: 0 initialized @(46181,0)
GPGPU-Sim PTX: 11100000 instructions simulated : ctaid=(261,0,0) tid=(320,0,0)
GPGPU-Sim uArch: Shader 7 finished CTA #1 (46292,0), 1 CTAs running
GPGPU-Sim uArch: core:  7, cta: 1 initialized @(46293,0)
GPGPU-Sim uArch: cycles simulated: 46500  inst.: 10842995 (ipc=233.2) sim_rate=39863 (inst/sec) elapsed = 0:0:04:32 / Thu Aug 14 11:07:31 2014
GPGPU-Sim PTX: 11200000 instructions simulated : ctaid=(266,0,0) tid=(260,0,0)
GPGPU-Sim uArch: Shader 3 finished CTA #0 (46664,0), 1 CTAs running
GPGPU-Sim uArch: core:  3, cta: 0 initialized @(46665,0)
GPGPU-Sim uArch: Shader 4 finished CTA #0 (46666,0), 1 CTAs running
GPGPU-Sim uArch: core:  4, cta: 0 initialized @(46667,0)
GPGPU-Sim uArch: Shader 14 finished CTA #1 (46693,0), 1 CTAs running
GPGPU-Sim uArch: core: 14, cta: 1 initialized @(46694,0)
GPGPU-Sim PTX: 11300000 instructions simulated : ctaid=(244,0,0) tid=(152,0,0)
GPGPU-Sim uArch: cycles simulated: 47000  inst.: 11018495 (ipc=234.4) sim_rate=39922 (inst/sec) elapsed = 0:0:04:36 / Thu Aug 14 11:07:35 2014
GPGPU-Sim PTX: 11400000 instructions simulated : ctaid=(269,0,0) tid=(111,0,0)
GPGPU-Sim uArch: cycles simulated: 47500  inst.: 11144017 (ipc=234.6) sim_rate=39942 (inst/sec) elapsed = 0:0:04:39 / Thu Aug 14 11:07:38 2014
GPGPU-Sim PTX: 11500000 instructions simulated : ctaid=(259,0,0) tid=(27,0,0)
[...]
dq_lat_table:0 	0 	0 	0 	0 	0 	0 	0 	0 	0 	0 	0 	0 	0 	0 	0 	0 	0 	0 	0 	0 	0 	0 	0 	0 	0 	0 	0 	0 	0 	0 	0 	
mf_lat_table:0 	0 	0 	0 	0 	0 	0 	483125 	489457 	1075 	0 	0 	0 	0 	0 	0 	0 	0 	0 	0 	0 	0 	0 	0 	0 	0 	0 	0 	0 	0 	0 	0 	
icnt2mem_lat_table:0 	0 	0 	734508 	216901 	21608 	588 	244 	3 	0 	0 	0 	0 	0 	0 	0 	0 	0 	0 	0 	0 	0 	0 	0 	
icnt2sh_lat_table:0 	0 	0 	128771 	223964 	303008 	199093 	8821 	0 	0 	0 	120 	180 	463 	924 	1854 	3706 	7445 	14808 	29733 	50767 	0 	0 	0 	
mf_lat_pw_table:0 	0 	0 	0 	0 	0 	0 	2255 	1806 	0 	0 	0 	0 	0 	0 	0 	0 	0 	0 	0 	0 	0 	0 	0 	0 	0 	0 	0 	0 	0 	0 	0 	
maximum concurrent accesses to same row:
dram[0]:         5         6         5         5        12        10        20        14        10        10         6         5        10         9        10         5 
dram[1]:         5         5         6         6        11        12        21        21         8        10         6         7        10         8         7         6 
dram[2]:         5         6         6         6        11        11        16        19        10        10         5         5        10         7         8         6 
dram[3]:         6         6         5         6        14        11        21        17         8        10         6         7        10         9         6         6 
dram[4]:         5         5         6         5         8        10        15        21         6         7         6        10        10        10         5         5 
dram[5]:         6         6         5         5        10        13        17        19         7         9         5         5        10        10         9         7 
maximum service time to same row:
dram[0]:      7406      6253      7903      6049     11683      8188      7117      6773      7247      6247      8491     13509      9405      8734      9297      7013 
dram[1]:      7259      8647      6790      6914      8196      9057      7589      8677      7766      6593      8795     11135      9416      8783      8780      7176 
dram[2]:      7316      6382      6684      9270      8007      8296      6390      8025      7516      6883      7615     10303      9113      6628      8573      8510 
dram[3]:      6440      8983      6800      9280      5971      7670      5946      6319      6988      7164      5805     11159     10303      7687      7194      8360 
dram[4]:      7618      7225      8049      9987      8069      7665      6927      6544      6806      6919      9982     11132      8725      9090      7062      8401 
dram[5]:      8407      7762      8394      9972      8110      9913     10210      7042      8700      6303      6759     11119      7572      7525      7034      6363 
average row accesses per activate:
dram[0]:  1.838926  1.870829  1.841894  1.856946  1.829717  1.844309  1.770615  1.791000  1.844233  1.813847  1.821727  1.813612  1.904627  1.874768  1.874654  1.867521 
dram[1]:  1.843565  1.857936  1.867568  1.818305  1.824757  1.820513  1.805746  1.779836  1.846047  1.846546  1.823502  1.825951  1.868852  1.881268  1.857788  1.820489 
dram[2]:  1.842759  1.846437  1.861726  1.870594  1.838015  1.829592  1.761804  1.801493  1.834095  1.848430  1.817804  1.827211  1.859382  1.869321  1.862602  1.832187 
dram[3]:  1.836810  1.870583  1.853007  1.850161  1.823636  1.841004  1.769614  1.780210  1.851113  1.862365  1.803338  1.798128  1.858415  1.860906  1.870850  1.847145 
dram[4]:  1.849553  1.833333  1.864516  1.865989  1.835959  1.845037  1.804741  1.798319  1.839776  1.850518  1.817489  1.824804  1.885246  1.878717  1.821751  1.840826 
dram[5]:  1.853612  1.859459  1.868049  1.844191  1.839361  1.844770  1.775597  1.792132  1.858634  1.831105  1.790274  1.812040  1.872477  1.876086  1.844569  1.864802 
average row locality = 388193/211204 = 1.838000
number of total memory accesses made:
dram[0]:         0         0         0         0         0         0         0         0         0         0         0         0         0         0         0         0 
dram[1]:         0         0         0         0         0         0         0         0         0         0         0         0         0         0         0         0 
dram[2]:         0         0         0         0         0         0         0         0         0         0         0         0         0         0         0         0 
dram[3]:         0         0         0         0         0         0         0         0         0         0         0         0         0         0         0         0 
dram[4]:         0         0         0         0         0         0         0         0         0         0         0         0         0         0         0         0 
dram[5]:         0         0         0         0         0         0         0         0         0         0         0         0         0         0         0         0 
total accesses: 0
min_bank_accesses = 0!
min_chip_accesses = 0!
number of total read accesses:
dram[0]:      4025      3818      4124      4037      3875      3915      4170      4079      3914      3814      3851      4008      3900      3903      3975      3851 
dram[1]:      3954      3919      4146      4033      3932      3970      4151      4071      3831      3835      3849      4012      3961      3832      4038      3877 
dram[2]:      3914      3922      4120      4033      3922      3988      4119      4042      3879      3906      3871      3957      4023      3856      4004      3919 
dram[3]:      3860      3984      4160      4013      4006      3954      4203      4168      3857      3972      3929      3965      4038      3884      4026      3935 
dram[4]:      3829      3979      4046      4038      3956      3935      4127      4220      3817      3971      3983      3886      3997      3893      3964      3938 
dram[5]:      3801      4046      3964      4048      3910      3892      4102      4266      3773      3964      4051      3873      3944      3952      3855      3938 
total reads: 381057
bank skew: 4266/3773 = 1.13
chip skew: 63954/63259 = 1.01
number of total write accesses:
dram[0]:        85       107         0         0         4         6        60        60       147       142        73        69       134       139        93        82 
dram[1]:       100        96         0         0         4         6        60        60       138       148        77        69       143       145        77        68 
dram[2]:        94        94         0         0         4         6        60        60       134       155        70        72       129       135        90        77 
dram[3]:       102        92         0         0         6         6        60        60       134       155        69        70       136       143        88        77 
dram[4]:       105        91         0         0         6         6        60        60       133       139        70        72       143       150        73        75 
dram[5]:        99        82         0         0         6         6        60        62       145       145        72        70       138       151        85        62 
total reads: 7136
min_bank_accesses = 0!
chip skew: 1201/1180 = 1.02
average mf latency per bank:
dram[0]:        397       400       353       353      1126      1000      1260      1280       499       500       516       518       450       452       410       415
dram[1]:        397       404       355       357      1053      1214      1280      1443       508       510       520       524       450       458       409       422
dram[2]:        398       400       354       360      1053      1370      1293      1325       508       503       524       522       451       456       416       416
dram[3]:        402       403       355       361      1165      1316      1385      1318       501       506       525       530       452       457       419       415
dram[4]:        394       405       349       360       969      1322      1230      1315       498       509       512       529       441       454       412       419
dram[5]:        398       400       350       358       980      1398      1252      1353       502       505       514       533       446       454       411       420
maximum mf latency per bank:
dram[0]:        593       577       627       560       586       556       635       556       545       584       556       581       564       533       621       555
dram[1]:        586       581       623       564       575       550       608       553       577       555       553       569       532       610       601       564
dram[2]:        549       524       558       548       596       555       587       571       539       570       578       546       592       560       611       570
dram[3]:        554       577       566       587       544       552       557       576       570       608       571       596       535       540       561       547
dram[4]:        571       545       588       584       531       549       561       546       567       519       563       534       533       563       569       534
dram[5]:        548       549       545       592       554       591       562       590       571       557       560       563       549       565       530       558

Number of Memory Banks Accessed per Memory Operation per Warp (from 0):
0	0	0	0	0	0	0	0	0	0	0	0	0	0	0	0	0	0	0	0	0	0	0	0	0	0	0	0	0	0	0	0	0	0	0	0	0	0	0	0	0	0	0	0	0	0	0	0	0	0	0	0	0	0	0	0	0	0	0	0	0	0	0	0	0	0	0	0	0	0	0	0	0	0	0	0	0	0	0	0	0	0	0	0	0	0	0	0	0	0	0	0	0	0	0	0	
Average # of Memory Banks Accessed per Memory Operation per Warp=-nan

position of mrq chosen
0	0	0	0	0	0	0	0	0	0	0	0	0	0	0	0	

average position of mrq chosen = -nan
Memory Partition 0: 
Cache L2_bank_000:
MSHR contents

Cache L2_bank_001:
MSHR contents

In Dram Latency Queue (total = 0): 
DRAM[0]: 16 bks, busW=4 BL=8 CL=12, tRRD=2 tCCD=6, tRCD=12 tRAS=28 tRP=12 tRC=40
n_cmd=2682401 n_nop=2484078 n_act=35028 n_pre=35012 n_req=64460 n_rd=126518 n_write=1765 bw_util=0.09565
n_activity=1172073 dram_eff=0.2189
bk0: 8050a 2602176i bk1: 7636a 2606433i bk2: 8248a 2602281i bk3: 8074a 2604201i bk4: 7750a 2606240i bk5: 7830a 2606219i bk6: 8340a 2597563i bk7: 8158a 2598783i bk8: 7828a 2603088i bk9: 7628a 2603656i bk10: 7702a 2604787i bk11: 8016a 2601311i bk12: 7800a 2604536i bk13: 7806a 2603485i bk14: 7950a 2603607i bk15: 7702a 2605566i 
dram_util_bins: 0 0 0 0 0 0 0 0 0 0
dram_eff_bins: 0 0 0 0 0 0 0 0 0 0
mrqq: max=13 avg=0.205093
Memory Partition 1: 
Cache L2_bank_002:
MSHR contents

Cache L2_bank_003:
MSHR contents

In Dram Latency Queue (total = 0): 
DRAM[1]: 16 bks, busW=4 BL=8 CL=12, tRRD=2 tCCD=6, tRCD=12 tRAS=28 tRP=12 tRC=40
n_cmd=2682401 n_nop=2483482 n_act=35179 n_pre=35163 n_req=64602 n_rd=126822 n_write=1755 bw_util=0.09587
n_activity=1175239 dram_eff=0.2188
bk0: 7908a 2603863i bk1: 7838a 2604392i bk2: 8292a 2602573i bk3: 8066a 2603130i bk4: 7864a 2605258i bk5: 7940a 2604514i bk6: 8302a 2598636i bk7: 8142a 2598422i bk8: 7662a 2604471i bk9: 7670a 2604322i bk10: 7698a 2605029i bk11: 8024a 2601588i bk12: 7922a 2602308i bk13: 7664a 2604765i bk14: 8076a 2602076i bk15: 7754a 2604363i 
dram_util_bins: 0 0 0 0 0 0 0 0 0 0
dram_eff_bins: 0 0 0 0 0 0 0 0 0 0
mrqq: max=9 avg=0.205385
Memory Partition 2: 
Cache L2_bank_004:
MSHR contents

Cache L2_bank_005:
MSHR contents

In Dram Latency Queue (total = 0): 
DRAM[2]: 16 bks, busW=4 BL=8 CL=12, tRRD=2 tCCD=6, tRCD=12 tRAS=28 tRP=12 tRC=40
n_cmd=2682401 n_nop=2483340 n_act=35192 n_pre=35176 n_req=64655 n_rd=126950 n_write=1743 bw_util=0.09595
n_activity=1172628 dram_eff=0.2195
bk0: 7828a 2603768i bk1: 7844a 2604386i bk2: 8240a 2603144i bk3: 8066a 2604439i bk4: 7844a 2606178i bk5: 7976a 2604118i bk6: 8238a 2597186i bk7: 8084a 2599689i bk8: 7758a 2603151i bk9: 7812a 2602831i bk10: 7742a 2604446i bk11: 7914a 2602291i bk12: 8046a 2601012i bk13: 7712a 2604467i bk14: 8008a 2602898i bk15: 7838a 2603717i 
dram_util_bins: 0 0 0 0 0 0 0 0 0 0
dram_eff_bins: 0 0 0 0 0 0 0 0 0 0
mrqq: max=11 avg=0.208318
Memory Partition 3: 
Cache L2_bank_006:
MSHR contents

Cache L2_bank_007:
MSHR contents

In Dram Latency Queue (total = 0): 
DRAM[3]: 16 bks, busW=4 BL=8 CL=12, tRRD=2 tCCD=6, tRCD=12 tRAS=28 tRP=12 tRC=40
n_cmd=2682401 n_nop=2481747 n_act=35499 n_pre=35483 n_req=65152 n_rd=127908 n_write=1764 bw_util=0.09668
n_activity=1183310 dram_eff=0.2192
bk0: 7720a 2605640i bk1: 7968a 2603840i bk2: 8320a 2602007i bk3: 8026a 2604644i bk4: 8012a 2603954i bk5: 7908a 2605292i bk6: 8406a 2596649i bk7: 8336a 2596989i bk8: 7714a 2604489i bk9: 7944a 2602054i bk10: 7858a 2602430i bk11: 7930a 2601883i bk12: 8076a 2600792i bk13: 7768a 2603325i bk14: 8052a 2602666i bk15: 7870a 2603893i 
dram_util_bins: 0 0 0 0 0 0 0 0 0 0
dram_eff_bins: 0 0 0 0 0 0 0 0 0 0
mrqq: max=9 avg=0.205264
Memory Partition 4: 
Cache L2_bank_008:
MSHR contents

Cache L2_bank_009:
MSHR contents

In Dram Latency Queue (total = 0): 
DRAM[4]: 16 bks, busW=4 BL=8 CL=12, tRRD=2 tCCD=6, tRCD=12 tRAS=28 tRP=12 tRC=40
n_cmd=2682401 n_nop=2483138 n_act=35186 n_pre=35170 n_req=64762 n_rd=127158 n_write=1749 bw_util=0.09611
n_activity=1178738 dram_eff=0.2187
bk0: 7658a 2606227i bk1: 7958a 2602533i bk2: 8092a 2604354i bk3: 8076a 2604234i bk4: 7912a 2605367i bk5: 7870a 2606329i bk6: 8254a 2599547i bk7: 8440a 2596788i bk8: 7634a 2605146i bk9: 7942a 2601543i bk10: 7966a 2602182i bk11: 7772a 2604239i bk12: 7994a 2602782i bk13: 7786a 2603865i bk14: 7928a 2602590i bk15: 7876a 2603260i 
dram_util_bins: 0 0 0 0 0 0 0 0 0 0
dram_eff_bins: 0 0 0 0 0 0 0 0 0 0
mrqq: max=10 avg=0.205469
Memory Partition 5: 
Cache L2_bank_010:
MSHR contents

Cache L2_bank_011:
MSHR contents

In Dram Latency Queue (total = 0): 
DRAM[5]: 16 bks, busW=4 BL=8 CL=12, tRRD=2 tCCD=6, tRCD=12 tRAS=28 tRP=12 tRC=40
n_cmd=2682401 n_nop=2483669 n_act=35121 n_pre=35105 n_req=64562 n_rd=126758 n_write=1748 bw_util=0.09581
n_activity=1174262 dram_eff=0.2189
bk0: 7602a 2606674i bk1: 8092a 2602671i bk2: 7928a 2606025i bk3: 8096a 2604034i bk4: 7820a 2606539i bk5: 7784a 2606536i bk6: 8204a 2598764i bk7: 8532a 2595597i bk8: 7546a 2605981i bk9: 7928a 2601281i bk10: 8102a 2599616i bk11: 7746a 2603205i bk12: 7888a 2602626i bk13: 7904a 2602295i bk14: 7710a 2604952i bk15: 7876a 2604277i 
dram_util_bins: 0 0 0 0 0 0 0 0 0 0
dram_eff_bins: 0 0 0 0 0 0 0 0 0 0
mrqq: max=9 avg=0.205351

========= L2 cache stats =========
L2_cache_bank[0]: Access = 79859, Miss = 31834, Miss_rate = 0.399, Pending_hits = 491, Reservation_fails = 2257
L2_cache_bank[1]: Access = 76610, Miss = 31425, Miss_rate = 0.410, Pending_hits = 523, Reservation_fails = 1421
L2_cache_bank[2]: Access = 78103, Miss = 31862, Miss_rate = 0.408, Pending_hits = 499, Reservation_fails = 1980
L2_cache_bank[3]: Access = 84372, Miss = 31549, Miss_rate = 0.374, Pending_hits = 515, Reservation_fails = 1531
L2_cache_bank[4]: Access = 77985, Miss = 31852, Miss_rate = 0.408, Pending_hits = 473, Reservation_fails = 1635
L2_cache_bank[5]: Access = 84981, Miss = 31623, Miss_rate = 0.372, Pending_hits = 518, Reservation_fails = 1891
L2_cache_bank[6]: Access = 84378, Miss = 32079, Miss_rate = 0.380, Pending_hits = 521, Reservation_fails = 1541
L2_cache_bank[7]: Access = 83461, Miss = 31875, Miss_rate = 0.382, Pending_hits = 483, Reservation_fails = 1190
L2_cache_bank[8]: Access = 77145, Miss = 31719, Miss_rate = 0.411, Pending_hits = 502, Reservation_fails = 1640
L2_cache_bank[9]: Access = 83511, Miss = 31860, Miss_rate = 0.382, Pending_hits = 483, Reservation_fails = 1304
L2_cache_bank[10]: Access = 76580, Miss = 31400, Miss_rate = 0.410, Pending_hits = 528, Reservation_fails = 1787
L2_cache_bank[11]: Access = 86867, Miss = 31979, Miss_rate = 0.368, Pending_hits = 498, Reservation_fails = 1655
L2_total_cache_accesses = 973852
L2_total_cache_misses = 381057
L2_total_cache_miss_rate = 0.3913
L2_total_cache_pending_hits = 6034
L2_total_cache_reservation_fails = 19832
L2_total_cache_breakdown:
	L2_cache_stats_breakdown[GLOBAL_ACC_R][HIT] = 480338
	L2_cache_stats_breakdown[GLOBAL_ACC_R][HIT_RESERVED] = 3685
	L2_cache_stats_breakdown[GLOBAL_ACC_R][MISS] = 379604
	L2_cache_stats_breakdown[GLOBAL_ACC_R][RESERVATION_FAIL] = 5352
	L2_cache_stats_breakdown[CONST_ACC_R][HIT] = 26
	L2_cache_stats_breakdown[CONST_ACC_R][HIT_RESERVED] = 3
	L2_cache_stats_breakdown[CONST_ACC_R][MISS] = 1
	L2_cache_stats_breakdown[CONST_ACC_R][RESERVATION_FAIL] = 100
	L2_cache_stats_breakdown[GLOBAL_ACC_W][HIT] = 106252
	L2_cache_stats_breakdown[GLOBAL_ACC_W][HIT_RESERVED] = 2309
	L2_cache_stats_breakdown[GLOBAL_ACC_W][MISS] = 1439
	L2_cache_stats_breakdown[GLOBAL_ACC_W][RESERVATION_FAIL] = 13458
	L2_cache_stats_breakdown[INST_ACC_R][HIT] = 145
	L2_cache_stats_breakdown[INST_ACC_R][HIT_RESERVED] = 37
	L2_cache_stats_breakdown[INST_ACC_R][MISS] = 13
	L2_cache_stats_breakdown[INST_ACC_R][RESERVATION_FAIL] = 922
L2_cache_data_port_util = 0.084
L2_cache_fill_port_util = 0.063

icnt_total_pkts_mem_to_simt=4429200
icnt_total_pkts_simt_to_mem=1083852
LD_mem_lat_dist  0 0 0 0 0 0 0 0 0 0 0 0 0 0 0 0 0 0 0 0 0 0 0 0 0 0 0
ST_mem_lat_dist  0 0 0 0 0 0 0 0 0 0 0 0 0 0 0 0 0 0 0 0 0 0 0 0 0 0 0
----------------------------Interconnect-DETAILS--------------------------------
Class 0:
Packet latency average = 25.1885
	minimum = 6
	maximum = 188
Network latency average = 20.1987
	minimum = 6
	maximum = 148
Slowest packet = 962459
Flit latency average = 21.7401
	minimum = 6
	maximum = 144
Slowest flit = 4289559
Fragmentation average = 1.11575e-05
	minimum = 0
	maximum = 11
Injected packet rate average = 0.0377278
	minimum = 0.0337053 (at node 9)
	maximum = 0.0459802 (at node 26)
Accepted packet rate average = 0.0377278
	minimum = 0.0337053 (at node 9)
	maximum = 0.0459802 (at node 26)
Injected flit rate average = 0.107443
	minimum = 0.0371408 (at node 9)
	maximum = 0.212708 (at node 26)
Accepted flit rate average= 0.107443
	minimum = 0.0410971 (at node 25)
	maximum = 0.157853 (at node 11)
Injected packet length average = 2.84785
Accepted packet length average = 2.84785
Total in-flight flits = 0 (0 measured)
====== Overall Traffic Statistics ======
====== Traffic class 0 ======
Packet latency average = 25.8061 (2 samples)
	minimum = 6 (2 samples)
	maximum = 182 (2 samples)
Network latency average = 20.7109 (2 samples)
	minimum = 6 (2 samples)
	maximum = 147.5 (2 samples)
Flit latency average = 22.3902 (2 samples)
	minimum = 6 (2 samples)
	maximum = 143.5 (2 samples)
Fragmentation average = 9.21769e-06 (2 samples)
	minimum = 0 (2 samples)
	maximum = 9 (2 samples)
Injected packet rate average = 0.0355995 (2 samples)
	minimum = 0.0317607 (2 samples)
	maximum = 0.0430339 (2 samples)
Accepted packet rate average = 0.0355995 (2 samples)
	minimum = 0.0317607 (2 samples)
	maximum = 0.0430339 (2 samples)
Injected flit rate average = 0.100795 (2 samples)
	minimum = 0.0353576 (2 samples)
	maximum = 0.197192 (2 samples)
Accepted flit rate average = 0.100795 (2 samples)
	minimum = 0.0396678 (2 samples)
	maximum = 0.147524 (2 samples)
Injected packet size average = 2.83137 (2 samples)
Accepted packet size average = 2.83137 (2 samples)
Hops average = 1 (2 samples)
----------------------------END-of-Interconnect-DETAILS-------------------------


gpgpu_simulation_time = 0 days, 1 hrs, 57 min, 2 sec (7022 sec)
gpgpu_simulation_rate = 77230 (inst/sec)
gpgpu_simulation_rate = 289 (cycle/sec)
GPGPU-Sim: synchronize waiting for inactive GPU simulation
GPGPU-Sim API: Stream Manager State
GPGPU-Sim: detected inactive GPU simulation thread
Time spent in different stages of GPU_CUDA KERNEL:
 0.000027000000 s,  0.000001066168 % : GPU: SET DEVICE / DRIVER INIT
 0.000002000000 s,  0.000000078975 % : GPU MEM: ALO
 1.679211974144 s,  0.066308237612 % : GPU MEM: COPY IN
2530.752441406250 s, 99.933609008789 % : GPU: KERNEL
 0.001744000008 s,  0.000068866560 % : GPU MEM: COPY OUT
 0.000000000000 s,  0.000000000000 % : GPU MEM: FRE
Total time:
2532.433593750000 s
> > > > > > > > > > 
