

        *** GPGPU-Sim Simulator Version 3.2.2  [build 17315] ***


GPGPU-Sim PTX: simulation mode 0 (can change with PTX_SIM_MODE_FUNC environment variable:
               1=functional simulation only, 0=detailed performance simulator)
GPGPU-Sim: Configuration options:

-network_mode                           1 # Interconnection network mode
-inter_config_file   config_fermi_islip.icnt # Interconnection network config file
-gpgpu_ptx_use_cuobjdump                    1 # Use cuobjdump to extract ptx and sass from binaries
-gpgpu_experimental_lib_support                    0 # Try to extract code from cuda libraries [Broken because of unknown cudaGetExportTable]
-gpgpu_ptx_convert_to_ptxplus                    0 # Convert SASS (native ISA) to ptxplus and run ptxplus
-gpgpu_ptx_force_max_capability                   20 # Force maximum compute capability
-gpgpu_ptx_inst_debug_to_file                    0 # Dump executed instructions' debug information to file
-gpgpu_ptx_inst_debug_file       inst_debug.txt # Executed instructions' debug output file
-gpgpu_ptx_inst_debug_thread_uid                    1 # Thread UID for executed instructions' debug output
-gpgpu_simd_model                       1 # 1 = post-dominator
-gpgpu_shader_core_pipeline              1536:32 # shader core pipeline config, i.e., {<nthread>:<warpsize>}
-gpgpu_tex_cache:l1  4:128:24,L:R:m:N,F:128:4,128:2 # per-shader L1 texture cache  (READ-ONLY) config  {<nsets>:<bsize>:<assoc>,<rep>:<wr>:<alloc>:<wr_alloc>,<mshr>:<N>:<merge>,<mq>:<rf>}
-gpgpu_const_cache:l1 64:64:2,L:R:f:N,A:2:32,4 # per-shader L1 constant memory cache  (READ-ONLY) config  {<nsets>:<bsize>:<assoc>,<rep>:<wr>:<alloc>:<wr_alloc>,<mshr>:<N>:<merge>,<mq>} 
-gpgpu_cache:il1     4:128:4,L:R:f:N,A:2:32,4 # shader L1 instruction cache config  {<nsets>:<bsize>:<assoc>,<rep>:<wr>:<alloc>:<wr_alloc>,<mshr>:<N>:<merge>,<mq>} 
-gpgpu_cache:dl1     32:128:6,L:L:m:N,A:32:8,8 # per-shader L1 data cache config  {<nsets>:<bsize>:<assoc>,<rep>:<wr>:<alloc>:<wr_alloc>,<mshr>:<N>:<merge>,<mq> | none}
-gpgpu_cache:dl1PrefL1                 none # per-shader L1 data cache config  {<nsets>:<bsize>:<assoc>,<rep>:<wr>:<alloc>:<wr_alloc>,<mshr>:<N>:<merge>,<mq> | none}
-gpgpu_cache:dl1PreShared                 none # per-shader L1 data cache config  {<nsets>:<bsize>:<assoc>,<rep>:<wr>:<alloc>:<wr_alloc>,<mshr>:<N>:<merge>,<mq> | none}
-gmem_skip_L1D                          0 # global memory access skip L1D cache (implements -Xptxas -dlcm=cg, default=no skip)
-gpgpu_perfect_mem                      0 # enable perfect memory mode (no cache miss)
-n_regfile_gating_group                    4 # group of lanes that should be read/written together)
-gpgpu_clock_gated_reg_file                    0 # enable clock gated reg file for power calculations
-gpgpu_clock_gated_lanes                    0 # enable clock gated lanes for power calculations
-gpgpu_shader_registers                32768 # Number of registers per shader core. Limits number of concurrent CTAs. (default 8192)
-gpgpu_shader_cta                       8 # Maximum number of concurrent CTAs in shader (default 8)
-gpgpu_n_clusters                      15 # number of processing clusters
-gpgpu_n_cores_per_cluster                    1 # number of simd cores per cluster
-gpgpu_n_cluster_ejection_buffer_size                    8 # number of packets in ejection buffer
-gpgpu_n_ldst_response_buffer_size                    2 # number of response packets in ld/st unit ejection buffer
-gpgpu_shmem_size                   16384 # Size of shared memory per shader core (default 16kB)
-gpgpu_shmem_size                   49152 # Size of shared memory per shader core (default 16kB)
-gpgpu_shmem_size_PrefL1                16384 # Size of shared memory per shader core (default 16kB)
-gpgpu_shmem_size_PrefShared                16384 # Size of shared memory per shader core (default 16kB)
-gpgpu_shmem_num_banks                   32 # Number of banks in the shared memory in each shader core (default 16)
-gpgpu_shmem_limited_broadcast                    0 # Limit shared memory to do one broadcast per cycle (default on)
-gpgpu_shmem_warp_parts                    1 # Number of portions a warp is divided into for shared memory bank conflict check 
-gpgpu_warpdistro_shader                   -1 # Specify which shader core to collect the warp size distribution from
-gpgpu_warp_issue_shader                    0 # Specify which shader core to collect the warp issue distribution from
-gpgpu_local_mem_map                    1 # Mapping from local memory space address to simulated GPU physical address space (default = enabled)
-gpgpu_num_reg_banks                   16 # Number of register banks (default = 8)
-gpgpu_reg_bank_use_warp_id                    0 # Use warp ID in mapping registers to banks (default = off)
-gpgpu_operand_collector_num_units_sp                    6 # number of collector units (default = 4)
-gpgpu_operand_collector_num_units_sfu                    8 # number of collector units (default = 4)
-gpgpu_operand_collector_num_units_mem                    2 # number of collector units (default = 2)
-gpgpu_operand_collector_num_units_gen                    0 # number of collector units (default = 0)
-gpgpu_operand_collector_num_in_ports_sp                    2 # number of collector unit in ports (default = 1)
-gpgpu_operand_collector_num_in_ports_sfu                    1 # number of collector unit in ports (default = 1)
-gpgpu_operand_collector_num_in_ports_mem                    1 # number of collector unit in ports (default = 1)
-gpgpu_operand_collector_num_in_ports_gen                    0 # number of collector unit in ports (default = 0)
-gpgpu_operand_collector_num_out_ports_sp                    2 # number of collector unit in ports (default = 1)
-gpgpu_operand_collector_num_out_ports_sfu                    1 # number of collector unit in ports (default = 1)
-gpgpu_operand_collector_num_out_ports_mem                    1 # number of collector unit in ports (default = 1)
-gpgpu_operand_collector_num_out_ports_gen                    0 # number of collector unit in ports (default = 0)
-gpgpu_coalesce_arch                   13 # Coalescing arch (default = 13, anything else is off for now)
-gpgpu_num_sched_per_core                    2 # Number of warp schedulers per core
-gpgpu_max_insn_issue_per_warp                    1 # Max number of instructions that can be issued per warp in one cycle by scheduler
-gpgpu_simt_core_sim_order                    1 # Select the simulation order of cores in a cluster (0=Fix, 1=Round-Robin)
-gpgpu_pipeline_widths        2,1,1,2,1,1,2 # Pipeline widths ID_OC_SP,ID_OC_SFU,ID_OC_MEM,OC_EX_SP,OC_EX_SFU,OC_EX_MEM,EX_WB
-gpgpu_num_sp_units                     2 # Number of SP units (default=1)
-gpgpu_num_sfu_units                    1 # Number of SF units (default=1)
-gpgpu_num_mem_units                    1 # Number if ldst units (default=1) WARNING: not hooked up to anything
-gpgpu_scheduler                      lrr # Scheduler configuration: < lrr | gto | two_level_active > If two_level_active:<num_active_warps>:<inner_prioritization>:<outer_prioritization>For complete list of prioritization values see shader.h enum scheduler_prioritization_typeDefault: gto
-gpgpu_dram_scheduler                    1 # 0 = fifo, 1 = FR-FCFS (defaul)
-gpgpu_dram_partition_queues              8:8:8:8 # i2$:$2d:d2$:$2i
-l2_ideal                               0 # Use a ideal L2 cache that always hit
-gpgpu_cache:dl2     64:128:8,L:B:m:W,A:32:4,4:0,32 # unified banked L2 data cache config  {<nsets>:<bsize>:<assoc>,<rep>:<wr>:<alloc>:<wr_alloc>,<mshr>:<N>:<merge>,<mq>}
-gpgpu_cache:dl2_texture_only                    0 # L2 cache used for texture only
-gpgpu_n_mem                            6 # number of memory modules (e.g. memory controllers) in gpu
-gpgpu_n_sub_partition_per_mchannel                    2 # number of memory subpartition in each memory module
-gpgpu_n_mem_per_ctrlr                    2 # number of memory chips per memory controller
-gpgpu_memlatency_stat                   14 # track and display latency statistics 0x2 enables MC, 0x4 enables queue logs
-gpgpu_frfcfs_dram_sched_queue_size                   16 # 0 = unlimited (default); # entries per chip
-gpgpu_dram_return_queue_size                  116 # 0 = unlimited (default); # entries per chip
-gpgpu_dram_buswidth                    4 # default = 4 bytes (8 bytes per cycle at DDR)
-gpgpu_dram_burst_length                    8 # Burst length of each DRAM request (default = 4 data bus cycle)
-dram_data_command_freq_ratio                    4 # Frequency ratio between DRAM data bus and command bus (default = 2 times, i.e. DDR)
-gpgpu_dram_timing_opt nbk=16:CCD=2:RRD=6:RCD=12:RAS=28:RP=12:RC=40: CL=12:WL=4:CDLR=5:WR=12:nbkgrp=4:CCDL=3:RTPL=2 # DRAM timing parameters = {nbk:tCCD:tRRD:tRCD:tRAS:tRP:tRC:CL:WL:tCDLR:tWR:nbkgrp:tCCDL:tRTPL}
-rop_latency                          120 # ROP queue latency (default 85)
-dram_latency                         100 # DRAM latency (default 30)
-gpgpu_mem_addr_mapping dramid@8;00000000.00000000.00000000.00000000.0000RRRR.RRRRRRRR.BBBCCCCB.CCSSSSSS # mapping memory address to dram model {dramid@<start bit>;<memory address map>}
-gpgpu_mem_addr_test                    0 # run sweep test to check address mapping for aliased address
-gpgpu_mem_address_mask                    1 # 0 = old addressing mask, 1 = new addressing mask, 2 = new add. mask + flipped bank sel and chip sel bits
-gpuwattch_xml_file  gpuwattch_gtx480.xml # GPUWattch XML file
-power_simulation_enabled                    1 # Turn on power simulator (1=On, 0=Off)
-power_per_cycle_dump                    0 # Dump detailed power output each cycle
-power_trace_enabled                    0 # produce a file for the power trace (1=On, 0=Off)
-power_trace_zlevel                     6 # Compression level of the power trace output log (0=no comp, 9=highest)
-steady_power_levels_enabled                    0 # produce a file for the steady power levels (1=On, 0=Off)
-steady_state_definition                  8:4 # allowed deviation:number of samples
-gpgpu_max_cycle                        0 # terminates gpu simulation early (0 = no limit)
-gpgpu_max_insn                         0 # terminates gpu simulation early (0 = no limit)
-gpgpu_max_cta                          0 # terminates gpu simulation early (0 = no limit)
-gpgpu_runtime_stat                   500 # display runtime statistics such as dram utilization {<freq>:<flag>}
-liveness_message_freq                    1 # Minimum number of seconds between simulation liveness messages (0 = always print)
-gpgpu_flush_l1_cache                    0 # Flush L1 cache at the end of each kernel call
-gpgpu_flush_l2_cache                    0 # Flush L2 cache at the end of each kernel call
-gpgpu_deadlock_detect                    1 # Stop the simulation at deadlock (1=on (default), 0=off)
-gpgpu_ptx_instruction_classification                    0 # if enabled will classify ptx instruction types per kernel (Max 255 kernels now)
-gpgpu_ptx_sim_mode                     0 # Select between Performance (default) or Functional simulation (1)
-gpgpu_clock_domains 700.0:700.0:700.0:924.0 # Clock Domain Frequencies in MhZ {<Core Clock>:<ICNT Clock>:<L2 Clock>:<DRAM Clock>}
-gpgpu_max_concurrent_kernel                    8 # maximum kernels that can run concurrently on GPU
-gpgpu_cflog_interval                    0 # Interval between each snapshot in control flow logger
-visualizer_enabled                     0 # Turn on visualizer output (1=On, 0=Off)
-visualizer_outputfile                 NULL # Specifies the output log file for visualizer
-visualizer_zlevel                      6 # Compression level of the visualizer output log (0=no comp, 9=highest)
-trace_enabled                          0 # Turn on traces
-trace_components                    none # comma seperated list of traces to enable. Complete list found in trace_streams.tup. Default none
-trace_sampling_core                    0 # The core which is printed using CORE_DPRINTF. Default 0
-trace_sampling_memory_partition                   -1 # The memory partition which is printed using MEMPART_DPRINTF. Default -1 (i.e. all)
-enable_ptx_file_line_stats                    1 # Turn on PTX source line statistic profiling. (1 = On)
-ptx_line_stats_filename gpgpu_inst_stats.txt # Output file for PTX source line statistics.
-save_embedded_ptx                      0 # saves ptx files embedded in binary as <n>.ptx
-keep                                   0 # keep intermediate files created by GPGPU-Sim when interfacing with external programs
-gpgpu_ptx_save_converted_ptxplus                    0 # Saved converted ptxplus to a file
-ptx_opcode_latency_int         4,13,4,5,145 # Opcode latencies for integers <ADD,MAX,MUL,MAD,DIV>Default 1,1,19,25,145
-ptx_opcode_latency_fp          4,13,4,5,39 # Opcode latencies for single precision floating points <ADD,MAX,MUL,MAD,DIV>Default 1,1,1,1,30
-ptx_opcode_latency_dp         8,19,8,8,330 # Opcode latencies for double precision floating points <ADD,MAX,MUL,MAD,DIV>Default 8,8,8,8,335
-ptx_opcode_initiation_int            1,2,2,1,8 # Opcode initiation intervals for integers <ADD,MAX,MUL,MAD,DIV>Default 1,1,4,4,32
-ptx_opcode_initiation_fp            1,2,1,1,4 # Opcode initiation intervals for single precision floating points <ADD,MAX,MUL,MAD,DIV>Default 1,1,1,1,5
-ptx_opcode_initiation_dp         8,16,8,8,130 # Opcode initiation intervals for double precision floating points <ADD,MAX,MUL,MAD,DIV>Default 8,8,8,8,130
DRAM Timing Options:
nbk                                    16 # number of banks
CCD                                     2 # column to column delay
RRD                                     6 # minimal delay between activation of rows in different banks
RCD                                    12 # row to column delay
RAS                                    28 # time needed to activate row
RP                                     12 # time needed to precharge (deactivate) row
RC                                     40 # row cycle time
CDLR                                    5 # switching from write to read (changes tWTR)
WR                                     12 # last data-in to row precharge
CL                                     12 # CAS latency
WL                                      4 # Write latency
nbkgrp                                  4 # number of bank groups
CCDL                                    3 # column to column delay between accesses to different bank groups
RTPL                                    2 # read to precharge delay between accesses to different bank groups
Total number of memory sub partition = 12
addr_dec_mask[CHIP]  = 0000000000000000 	high:64 low:0
addr_dec_mask[BK]    = 000000000000e100 	high:16 low:8
addr_dec_mask[ROW]   = 000000000fff0000 	high:28 low:16
addr_dec_mask[COL]   = 0000000000001eff 	high:13 low:0
addr_dec_mask[BURST] = 000000000000003f 	high:6 low:0
sub_partition_id_mask = 0000000000000100
GPGPU-Sim uArch: clock freqs: 700000000.000000:700000000.000000:700000000.000000:924000000.000000
GPGPU-Sim uArch: clock periods: 0.00000000142857142857:0.00000000142857142857:0.00000000142857142857:0.00000000108225108225
*** Initializing Memory Statistics ***
GPGPU-Sim uArch: interconnect node map (shaderID+MemID to icntID)
GPGPU-Sim uArch: Memory nodes ID start from index: 15
GPGPU-Sim uArch:    0   1   2   3   4
GPGPU-Sim uArch:    5   6   7   8   9
GPGPU-Sim uArch:   10  11  12  13  14
GPGPU-Sim uArch:   15  16  17  18  19
GPGPU-Sim uArch:   20  21  22  23  24
GPGPU-Sim uArch:   25  26
GPGPU-Sim uArch: interconnect node reverse map (icntID to shaderID+MemID)
GPGPU-Sim uArch: Memory nodes start from ID: 15
GPGPU-Sim uArch:    0   1   2   3   4
GPGPU-Sim uArch:    5   6   7   8   9
GPGPU-Sim uArch:   10  11  12  13  14
GPGPU-Sim uArch:   15  16  17  18  19
GPGPU-Sim uArch:   20  21  22  23  24
GPGPU-Sim uArch:   25  26
5dfc00447550946b86c573f0833154d9  /home/xlxie/workdir_Aug1st_2014/bm/rodinia_2.4_sim_1.0/cuda/b+tree.tmp.3/b+tree.out
GPGPU-Sim uArch: performance model initialization complete.
GPGPU-Sim PTX: __cudaRegisterFatBinary, fat_cubin_handle = 1, filename=./kernel/kernel_gpu_cuda_wrapper.cu
self exe links to: /home/xlxie/workdir_Aug1st_2014/bm/rodinia_2.4_sim_1.0/cuda/b+tree.tmp.3/b+tree.out
Running md5sum using "md5sum /home/xlxie/workdir_Aug1st_2014/bm/rodinia_2.4_sim_1.0/cuda/b+tree.tmp.3/b+tree.out "
Running cuobjdump using "$CUDA_INSTALL_PATH/bin/cuobjdump -ptx -elf -sass /home/xlxie/workdir_Aug1st_2014/bm/rodinia_2.4_sim_1.0/cuda/b+tree.tmp.3/b+tree.out > _cuobjdump_complete_output_oURV7m"
Parsing file _cuobjdump_complete_output_oURV7m
######### cuobjdump parser ########
## Adding new section PTX
Adding ptx filename: _cuobjdump_1.ptx
Adding arch: sm_20
Adding identifier: ./kernel/kernel_gpu_cuda_wrapper.cu
## Adding new section PTX
Adding ptx filename: _cuobjdump_2.ptx
Adding arch: sm_20
Adding identifier: ./kernel/kernel_gpu_cuda_wrapper_2.cu
## Adding new section PTX
Adding ptx filename: _cuobjdump_3.ptx
Adding arch: sm_20
Adding identifier: ./util/cuda/cuda.cu
Done parsing!!!
GPGPU-Sim PTX: __cudaRegisterFunction findK : hostFun 0x0x405e20, fat_cubin_handle = 1
GPGPU-Sim PTX: instruction assembly for function 'findK'...   done.
GPGPU-Sim PTX: finding reconvergence points for 'findK'...
GPGPU-Sim PTX: Finding dominators for 'findK'...
GPGPU-Sim PTX: Finding immediate dominators for 'findK'...
GPGPU-Sim PTX: Finding postdominators for 'findK'...
GPGPU-Sim PTX: Finding immediate postdominators for 'findK'...
GPGPU-Sim PTX: pre-decoding instructions for 'findK'...
GPGPU-Sim PTX: reconvergence points for findK...
GPGPU-Sim PTX:  1 (potential) branch divergence @  PC=0x038 (_1.ptx:74) @%p1 bra $Lt_0_7682;
GPGPU-Sim PTX:    immediate post dominator      @  PC=0x1e8 (_1.ptx:141) ld.global.u64 %rd32, [%rd12+0];
GPGPU-Sim PTX:  2 (potential) branch divergence @  PC=0x0d0 (_1.ptx:96) @%p3 bra $Lt_0_7938;
GPGPU-Sim PTX:    immediate post dominator      @  PC=0x150 (_1.ptx:116) bar.sync 0;
GPGPU-Sim PTX:  3 (potential) branch divergence @  PC=0x0e8 (_1.ptx:99) @%p4 bra $Lt_0_7938;
GPGPU-Sim PTX:    immediate post dominator      @  PC=0x150 (_1.ptx:116) bar.sync 0;
GPGPU-Sim PTX:  4 (potential) branch divergence @  PC=0x140 (_1.ptx:110) @%p5 bra $Lt_0_7938;
GPGPU-Sim PTX:    immediate post dominator      @  PC=0x150 (_1.ptx:116) bar.sync 0;
GPGPU-Sim PTX:  5 (potential) branch divergence @  PC=0x158 (_1.ptx:117) @!%p2 bra $Lt_0_6402;
GPGPU-Sim PTX:    immediate post dominator      @  PC=0x180 (_1.ptx:125) bar.sync 0;
GPGPU-Sim PTX:  6 (potential) branch divergence @  PC=0x198 (_1.ptx:129) @%p6 bra $Lt_0_5634;
GPGPU-Sim PTX:    immediate post dominator      @  PC=0x1a0 (_1.ptx:130) bra.uni $Lt_0_5122;
GPGPU-Sim PTX:  7 (potential) branch divergence @  PC=0x1a0 (_1.ptx:130) bra.uni $Lt_0_5122;
GPGPU-Sim PTX:    immediate post dominator      @  PC=0x1e8 (_1.ptx:141) ld.global.u64 %rd32, [%rd12+0];
GPGPU-Sim PTX:  8 (potential) branch divergence @  PC=0x220 (_1.ptx:148) @%p7 bra $Lt_0_7170;
GPGPU-Sim PTX:    immediate post dominator      @  PC=0x270 (_1.ptx:161) exit;
GPGPU-Sim PTX: ... end of reconvergence points for findK
GPGPU-Sim PTX: ... done pre-decoding instructions for 'findK'.
GPGPU-Sim PTX: finished parsing EMBEDDED .ptx file _1.ptx
Adding _cuobjdump_1.ptx with cubin handle 1
GPGPU-Sim PTX: extracting embedded .ptx to temporary file "_ptx_2VwF2M"
Running: cat _ptx_2VwF2M | sed 's/.version 1.5/.version 1.4/' | sed 's/, texmode_independent//' | sed 's/\(\.extern \.const\[1\] .b8 \w\+\)\[\]/\1\[1\]/' | sed 's/const\[.\]/const\[0\]/g' > _ptx2_2B6pXc
GPGPU-Sim PTX: generating ptxinfo using "$CUDA_INSTALL_PATH/bin/ptxas --gpu-name=sm_20 -v _ptx2_2B6pXc --output-file  /dev/null 2> _ptx_2VwF2Minfo"
GPGPU-Sim PTX: Kernel 'findK' : regs=18, lmem=0, smem=0, cmem=96
GPGPU-Sim PTX: removing ptxinfo using "rm -f _ptx_2VwF2M _ptx2_2B6pXc _ptx_2VwF2Minfo"
GPGPU-Sim PTX: loading globals with explicit initializers... 
GPGPU-Sim PTX: finished loading globals (0 bytes total).
GPGPU-Sim PTX: loading constants with explicit initializers...  done.
GPGPU-Sim PTX: __cudaRegisterFatBinary, fat_cubin_handle = 2, filename=./kernel/kernel_gpu_cuda_wrapper_2.cu
GPGPU-Sim PTX: __cudaRegisterFunction findRangeK : hostFun 0x0x406530, fat_cubin_handle = 2
GPGPU-Sim PTX: instruction assembly for function 'findRangeK'...   done.
GPGPU-Sim PTX: finding reconvergence points for 'findRangeK'...
GPGPU-Sim PTX: Finding dominators for 'findRangeK'...
GPGPU-Sim PTX: Finding immediate dominators for 'findRangeK'...
GPGPU-Sim PTX: Finding postdominators for 'findRangeK'...
GPGPU-Sim PTX: Finding immediate postdominators for 'findRangeK'...
GPGPU-Sim PTX: pre-decoding instructions for 'findRangeK'...
GPGPU-Sim PTX: reconvergence points for findRangeK...
GPGPU-Sim PTX:  1 (potential) branch divergence @  PC=0x2c0 (_2.ptx:79) @%p1 bra $Lt_0_11778;
GPGPU-Sim PTX:    immediate post dominator      @  PC=0x528 (_2.ptx:174) ld.global.u64 %rd43, [%rd15+0];
GPGPU-Sim PTX:  2 (potential) branch divergence @  PC=0x368 (_2.ptx:103) @%p3 bra $Lt_0_12034;
GPGPU-Sim PTX:    immediate post dominator      @  PC=0x3c8 (_2.ptx:119) ld.global.s32 %r8, [%rd14+0];
GPGPU-Sim PTX:  3 (potential) branch divergence @  PC=0x380 (_2.ptx:106) @%p4 bra $Lt_0_12034;
GPGPU-Sim PTX:    immediate post dominator      @  PC=0x3c8 (_2.ptx:119) ld.global.s32 %r8, [%rd14+0];
GPGPU-Sim PTX:  4 (potential) branch divergence @  PC=0x3a8 (_2.ptx:111) @%p5 bra $Lt_0_12034;
GPGPU-Sim PTX:    immediate post dominator      @  PC=0x3c8 (_2.ptx:119) ld.global.s32 %r8, [%rd14+0];
GPGPU-Sim PTX:  5 (potential) branch divergence @  PC=0x400 (_2.ptx:126) @%p6 bra $Lt_0_12546;
GPGPU-Sim PTX:    immediate post dominator      @  PC=0x460 (_2.ptx:142) bar.sync 0;
GPGPU-Sim PTX:  6 (potential) branch divergence @  PC=0x418 (_2.ptx:129) @%p7 bra $Lt_0_12546;
GPGPU-Sim PTX:    immediate post dominator      @  PC=0x460 (_2.ptx:142) bar.sync 0;
GPGPU-Sim PTX:  7 (potential) branch divergence @  PC=0x440 (_2.ptx:134) @%p8 bra $Lt_0_12546;
GPGPU-Sim PTX:    immediate post dominator      @  PC=0x460 (_2.ptx:142) bar.sync 0;
GPGPU-Sim PTX:  8 (potential) branch divergence @  PC=0x468 (_2.ptx:143) @!%p2 bra $Lt_0_9986;
GPGPU-Sim PTX:    immediate post dominator      @  PC=0x4b0 (_2.ptx:156) bar.sync 0;
GPGPU-Sim PTX:  9 (potential) branch divergence @  PC=0x4c8 (_2.ptx:160) @%p9 bra $Lt_0_8706;
GPGPU-Sim PTX:    immediate post dominator      @  PC=0x4d0 (_2.ptx:161) bra.uni $Lt_0_8194;
GPGPU-Sim PTX: 10 (potential) branch divergence @  PC=0x4d0 (_2.ptx:161) bra.uni $Lt_0_8194;
GPGPU-Sim PTX:    immediate post dominator      @  PC=0x528 (_2.ptx:174) ld.global.u64 %rd43, [%rd15+0];
GPGPU-Sim PTX: 11 (potential) branch divergence @  PC=0x560 (_2.ptx:181) @%p10 bra $Lt_0_10754;
GPGPU-Sim PTX:    immediate post dominator      @  PC=0x588 (_2.ptx:189) bar.sync 0;
GPGPU-Sim PTX: 12 (potential) branch divergence @  PC=0x5c8 (_2.ptx:197) @%p11 bra $Lt_0_11266;
GPGPU-Sim PTX:    immediate post dominator      @  PC=0x618 (_2.ptx:210) exit;
GPGPU-Sim PTX: ... end of reconvergence points for findRangeK
GPGPU-Sim PTX: ... done pre-decoding instructions for 'findRangeK'.
GPGPU-Sim PTX: finished parsing EMBEDDED .ptx file _2.ptx
Adding _cuobjdump_2.ptx with cubin handle 2
GPGPU-Sim PTX: extracting embedded .ptx to temporary file "_ptx_rjYNFD"
Running: cat _ptx_rjYNFD | sed 's/.version 1.5/.version 1.4/' | sed 's/, texmode_independent//' | sed 's/\(\.extern \.const\[1\] .b8 \w\+\)\[\]/\1\[1\]/' | sed 's/const\[.\]/const\[0\]/g' > _ptx2_lkydo4
GPGPU-Sim PTX: generating ptxinfo using "$CUDA_INSTALL_PATH/bin/ptxas --gpu-name=sm_20 -v _ptx2_lkydo4 --output-file  /dev/null 2> _ptx_rjYNFDinfo"
GPGPU-Sim PTX: Kernel 'findRangeK' : regs=23, lmem=0, smem=0, cmem=120
GPGPU-Sim PTX: removing ptxinfo using "rm -f _ptx_rjYNFD _ptx2_lkydo4 _ptx_rjYNFDinfo"
GPGPU-Sim PTX: loading globals with explicit initializers... 
GPGPU-Sim PTX: finished loading globals (0 bytes total).
GPGPU-Sim PTX: loading constants with explicit initializers...  done.
GPGPU-Sim PTX: __cudaRegisterFatBinary, fat_cubin_handle = 3, filename=./util/cuda/cuda.cu
Selecting device 0
Input File: ../../data/b+tree/mil.txt 
Command File: ../../data/b+tree/command.txt 
Command Buffer: 
j 6000 3000
k 10000


Getting input from file ../../data/b+tree/mil.txt...
Transforming data to a GPU suitable structure...
Tree transformation took 0.651792
Waiting for command
> 
******command: j count=6000, rSize=6000 
knodes_elem=3953, knodes_unit_mem=4084, knodes_mem=16144052
GPGPU-Sim: synchronize waiting for inactive GPU simulation
GPGPU-Sim API: Stream Manager State
GPGPU-Sim: detected inactive GPU simulation thread
# of blocks = 6000, # of threads/block = 508 (ensure that device can handle)

GPGPU-Sim PTX: cudaLaunch for 0x0x406530 (mode=performance simulation) on stream 0
GPGPU-Sim PTX: pushing kernel 'findRangeK' to stream 0, gridDim= (6000,1,1) blockDim = (508,1,1) 
kernel 'findRangeK' transfer to GPU hardware scheduler
GPGPU-Sim uArch: Shader 1 bind to kernel 1 'findRangeK'
GPGPU-Sim uArch: CTA/core = 2, limited by: regs
GPGPU-Sim uArch: core:  1, cta: 0 initialized @(1,0)
GPGPU-Sim uArch: Shader 2 bind to kernel 1 'findRangeK'
GPGPU-Sim uArch: core:  2, cta: 0 initialized @(1,0)
GPGPU-Sim uArch: Shader 3 bind to kernel 1 'findRangeK'
GPGPU-Sim uArch: core:  3, cta: 0 initialized @(1,0)
GPGPU-Sim uArch: Shader 4 bind to kernel 1 'findRangeK'
GPGPU-Sim uArch: core:  4, cta: 0 initialized @(1,0)
GPGPU-Sim uArch: Shader 5 bind to kernel 1 'findRangeK'
GPGPU-Sim uArch: core:  5, cta: 0 initialized @(1,0)
GPGPU-Sim uArch: Shader 6 bind to kernel 1 'findRangeK'
GPGPU-Sim uArch: core:  6, cta: 0 initialized @(1,0)
GPGPU-Sim uArch: Shader 7 bind to kernel 1 'findRangeK'
GPGPU-Sim uArch: core:  7, cta: 0 initialized @(1,0)
GPGPU-Sim uArch: Shader 8 bind to kernel 1 'findRangeK'
GPGPU-Sim uArch: core:  8, cta: 0 initialized @(1,0)
GPGPU-Sim uArch: Shader 9 bind to kernel 1 'findRangeK'
GPGPU-Sim uArch: core:  9, cta: 0 initialized @(1,0)
GPGPU-Sim uArch: Shader 10 bind to kernel 1 'findRangeK'
GPGPU-Sim uArch: core: 10, cta: 0 initialized @(1,0)
GPGPU-Sim uArch: Shader 11 bind to kernel 1 'findRangeK'
GPGPU-Sim uArch: core: 11, cta: 0 initialized @(1,0)
GPGPU-Sim uArch: Shader 12 bind to kernel 1 'findRangeK'
GPGPU-Sim uArch: core: 12, cta: 0 initialized @(1,0)
GPGPU-Sim uArch: Shader 13 bind to kernel 1 'findRangeK'
GPGPU-Sim uArch: core: 13, cta: 0 initialized @(1,0)
GPGPU-Sim uArch: Shader 14 bind to kernel 1 'findRangeK'
GPGPU-Sim uArch: core: 14, cta: 0 initialized @(1,0)
GPGPU-Sim uArch: Shader 0 bind to kernel 1 'findRangeK'
GPGPU-Sim uArch: core:  0, cta: 0 initialized @(1,0)
GPGPU-Sim uArch: core:  1, cta: 1 initialized @(2,0)
GPGPU-Sim uArch: core:  2, cta: 1 initialized @(2,0)
GPGPU-Sim uArch: core:  3, cta: 1 initialized @(2,0)
GPGPU-Sim uArch: core:  4, cta: 1 initialized @(2,0)
GPGPU-Sim uArch: core:  5, cta: 1 initialized @(2,0)
GPGPU-Sim uArch: core:  6, cta: 1 initialized @(2,0)
GPGPU-Sim uArch: core:  7, cta: 1 initialized @(2,0)
GPGPU-Sim uArch: core:  8, cta: 1 initialized @(2,0)
GPGPU-Sim uArch: core:  9, cta: 1 initialized @(2,0)
GPGPU-Sim uArch: core: 10, cta: 1 initialized @(2,0)
GPGPU-Sim uArch: core: 11, cta: 1 initialized @(2,0)
GPGPU-Sim uArch: core: 12, cta: 1 initialized @(2,0)
GPGPU-Sim uArch: core: 13, cta: 1 initialized @(2,0)
GPGPU-Sim uArch: core: 14, cta: 1 initialized @(2,0)
GPGPU-Sim uArch: core:  0, cta: 1 initialized @(2,0)
GPGPU-Sim uArch: cycles simulated: 500  inst.: 0 (ipc= 0.0) sim_rate=0 (inst/sec) elapsed = 0:0:00:25 / Thu Aug 14 11:03:23 2014
GPGPU-Sim PTX: 100000 instructions simulated : ctaid=(19,0,0) tid=(91,0,0)
GPGPU-Sim PTX: 200000 instructions simulated : ctaid=(8,0,0) tid=(7,0,0)
GPGPU-Sim uArch: cycles simulated: 1000  inst.: 255476 (ipc=255.5) sim_rate=9124 (inst/sec) elapsed = 0:0:00:28 / Thu Aug 14 11:03:26 2014
GPGPU-Sim PTX: 300000 instructions simulated : ctaid=(8,0,0) tid=(411,0,0)
GPGPU-Sim uArch: cycles simulated: 1500  inst.: 337880 (ipc=225.3) sim_rate=11262 (inst/sec) elapsed = 0:0:00:30 / Thu Aug 14 11:03:28 2014
GPGPU-Sim PTX: 400000 instructions simulated : ctaid=(22,0,0) tid=(63,0,0)
GPGPU-Sim uArch: cycles simulated: 2000  inst.: 426874 (ipc=213.4) sim_rate=13339 (inst/sec) elapsed = 0:0:00:32 / Thu Aug 14 11:03:30 2014
GPGPU-Sim PTX: 500000 instructions simulated : ctaid=(29,0,0) tid=(352,0,0)
GPGPU-Sim uArch: cycles simulated: 2500  inst.: 529708 (ipc=211.9) sim_rate=15579 (inst/sec) elapsed = 0:0:00:34 / Thu Aug 14 11:03:32 2014
GPGPU-Sim PTX: 600000 instructions simulated : ctaid=(6,0,0) tid=(59,0,0)
GPGPU-Sim uArch: cycles simulated: 3000  inst.: 611006 (ipc=203.7) sim_rate=17457 (inst/sec) elapsed = 0:0:00:35 / Thu Aug 14 11:03:33 2014
GPGPU-Sim PTX: 700000 instructions simulated : ctaid=(26,0,0) tid=(265,0,0)
GPGPU-Sim uArch: cycles simulated: 3500  inst.: 686318 (ipc=196.1) sim_rate=19064 (inst/sec) elapsed = 0:0:00:36 / Thu Aug 14 11:03:34 2014
GPGPU-Sim uArch: cycles simulated: 4000  inst.: 760414 (ipc=190.1) sim_rate=20010 (inst/sec) elapsed = 0:0:00:38 / Thu Aug 14 11:03:36 2014
GPGPU-Sim PTX: 800000 instructions simulated : ctaid=(22,0,0) tid=(263,0,0)
GPGPU-Sim uArch: cycles simulated: 4500  inst.: 854936 (ipc=190.0) sim_rate=21373 (inst/sec) elapsed = 0:0:00:40 / Thu Aug 14 11:03:38 2014
GPGPU-Sim PTX: 900000 instructions simulated : ctaid=(1,0,0) tid=(285,0,0)
GPGPU-Sim uArch: cycles simulated: 5000  inst.: 965418 (ipc=193.1) sim_rate=22986 (inst/sec) elapsed = 0:0:00:42 / Thu Aug 14 11:03:40 2014
GPGPU-Sim PTX: 1000000 instructions simulated : ctaid=(11,0,0) tid=(429,0,0)
GPGPU-Sim uArch: cycles simulated: 5500  inst.: 1018789 (ipc=185.2) sim_rate=23692 (inst/sec) elapsed = 0:0:00:43 / Thu Aug 14 11:03:41 2014
GPGPU-Sim PTX: 1100000 instructions simulated : ctaid=(29,0,0) tid=(319,0,0)
GPGPU-Sim uArch: cycles simulated: 6000  inst.: 1104679 (ipc=184.1) sim_rate=24548 (inst/sec) elapsed = 0:0:00:45 / Thu Aug 14 11:03:43 2014
GPGPU-Sim PTX: 1200000 instructions simulated : ctaid=(11,0,0) tid=(26,0,0)
GPGPU-Sim uArch: cycles simulated: 6500  inst.: 1157200 (ipc=178.0) sim_rate=24621 (inst/sec) elapsed = 0:0:00:47 / Thu Aug 14 11:03:45 2014
GPGPU-Sim uArch: cycles simulated: 7000  inst.: 1234085 (ipc=176.3) sim_rate=25185 (inst/sec) elapsed = 0:0:00:49 / Thu Aug 14 11:03:47 2014
GPGPU-Sim PTX: 1300000 instructions simulated : ctaid=(5,0,0) tid=(299,0,0)
GPGPU-Sim uArch: cycles simulated: 7500  inst.: 1282118 (ipc=170.9) sim_rate=25139 (inst/sec) elapsed = 0:0:00:51 / Thu Aug 14 11:03:49 2014
GPGPU-Sim uArch: Shader 1 finished CTA #0 (7564,0), 1 CTAs running
GPGPU-Sim uArch: core:  1, cta: 0 initialized @(7565,0)
GPGPU-Sim uArch: Shader 8 finished CTA #0 (7627,0), 1 CTAs running
GPGPU-Sim uArch: core:  8, cta: 0 initialized @(7628,0)
GPGPU-Sim uArch: Shader 6 finished CTA #0 (7639,0), 1 CTAs running
GPGPU-Sim uArch: core:  6, cta: 0 initialized @(7640,0)
GPGPU-Sim uArch: Shader 12 finished CTA #0 (7663,0), 1 CTAs running
GPGPU-Sim uArch: core: 12, cta: 0 initialized @(7664,0)
GPGPU-Sim uArch: Shader 10 finished CTA #0 (7675,0), 1 CTAs running
GPGPU-Sim uArch: core: 10, cta: 0 initialized @(7676,0)
GPGPU-Sim uArch: Shader 0 finished CTA #0 (7681,0), 1 CTAs running
GPGPU-Sim uArch: core:  0, cta: 0 initialized @(7682,0)
GPGPU-Sim uArch: Shader 2 finished CTA #1 (7684,0), 1 CTAs running
GPGPU-Sim uArch: core:  2, cta: 1 initialized @(7685,0)
GPGPU-Sim uArch: Shader 3 finished CTA #0 (7698,0), 1 CTAs running
GPGPU-Sim uArch: core:  3, cta: 0 initialized @(7699,0)
GPGPU-Sim uArch: Shader 7 finished CTA #0 (7709,0), 1 CTAs running
GPGPU-Sim uArch: core:  7, cta: 0 initialized @(7710,0)
GPGPU-Sim uArch: Shader 2 finished CTA #0 (7719,0), 1 CTAs running
GPGPU-Sim uArch: core:  2, cta: 0 initialized @(7720,0)
GPGPU-Sim uArch: Shader 12 finished CTA #1 (7720,0), 1 CTAs running
GPGPU-Sim uArch: core: 12, cta: 1 initialized @(7721,0)
GPGPU-Sim uArch: Shader 3 finished CTA #1 (7723,0), 1 CTAs running
GPGPU-Sim uArch: core:  3, cta: 1 initialized @(7724,0)
GPGPU-Sim uArch: Shader 8 finished CTA #1 (7726,0), 1 CTAs running
GPGPU-Sim uArch: core:  8, cta: 1 initialized @(7727,0)
GPGPU-Sim uArch: Shader 9 finished CTA #1 (7729,0), 1 CTAs running
GPGPU-Sim uArch: core:  9, cta: 1 initialized @(7730,0)
GPGPU-Sim uArch: Shader 4 finished CTA #1 (7733,0), 1 CTAs running
GPGPU-Sim uArch: core:  4, cta: 1 initialized @(7734,0)
GPGPU-Sim uArch: Shader 4 finished CTA #0 (7772,0), 1 CTAs running
GPGPU-Sim uArch: core:  4, cta: 0 initialized @(7773,0)
GPGPU-Sim uArch: Shader 6 finished CTA #1 (7783,0), 1 CTAs running
GPGPU-Sim uArch: core:  6, cta: 1 initialized @(7784,0)
GPGPU-Sim uArch: Shader 14 finished CTA #0 (7795,0), 1 CTAs running
GPGPU-Sim uArch: core: 14, cta: 0 initialized @(7796,0)
GPGPU-Sim PTX: 1400000 instructions simulated : ctaid=(41,0,0) tid=(454,0,0)
GPGPU-Sim uArch: Shader 0 finished CTA #1 (7803,0), 1 CTAs running
GPGPU-Sim uArch: core:  0, cta: 1 initialized @(7804,0)
GPGPU-Sim uArch: Shader 10 finished CTA #1 (7813,0), 1 CTAs running
GPGPU-Sim uArch: core: 10, cta: 1 initialized @(7814,0)
GPGPU-Sim uArch: Shader 9 finished CTA #0 (7821,0), 1 CTAs running
GPGPU-Sim uArch: core:  9, cta: 0 initialized @(7822,0)
GPGPU-Sim uArch: Shader 1 finished CTA #1 (7829,0), 1 CTAs running
GPGPU-Sim uArch: core:  1, cta: 1 initialized @(7830,0)
GPGPU-Sim uArch: Shader 7 finished CTA #1 (7854,0), 1 CTAs running
GPGPU-Sim uArch: core:  7, cta: 1 initialized @(7855,0)
GPGPU-Sim uArch: Shader 11 finished CTA #1 (7868,0), 1 CTAs running
GPGPU-Sim uArch: core: 11, cta: 1 initialized @(7869,0)
GPGPU-Sim uArch: Shader 14 finished CTA #1 (7910,0), 1 CTAs running
GPGPU-Sim uArch: core: 14, cta: 1 initialized @(7911,0)
GPGPU-Sim PTX: 1500000 instructions simulated : ctaid=(54,0,0) tid=(379,0,0)
GPGPU-Sim uArch: Shader 13 finished CTA #1 (7949,0), 1 CTAs running
GPGPU-Sim uArch: core: 13, cta: 1 initialized @(7950,0)
GPGPU-Sim uArch: Shader 13 finished CTA #0 (7974,0), 1 CTAs running
GPGPU-Sim uArch: core: 13, cta: 0 initialized @(7975,0)
GPGPU-Sim uArch: cycles simulated: 8000  inst.: 1488060 (ipc=186.0) sim_rate=27556 (inst/sec) elapsed = 0:0:00:54 / Thu Aug 14 11:03:52 2014
GPGPU-Sim uArch: Shader 5 finished CTA #1 (8015,0), 1 CTAs running
GPGPU-Sim uArch: core:  5, cta: 1 initialized @(8016,0)
GPGPU-Sim uArch: Shader 5 finished CTA #0 (8040,0), 1 CTAs running
GPGPU-Sim uArch: core:  5, cta: 0 initialized @(8041,0)
GPGPU-Sim PTX: 1600000 instructions simulated : ctaid=(57,0,0) tid=(198,0,0)
GPGPU-Sim uArch: Shader 11 finished CTA #0 (8107,0), 1 CTAs running
GPGPU-Sim uArch: core: 11, cta: 0 initialized @(8108,0)
GPGPU-Sim PTX: 1700000 instructions simulated : ctaid=(31,0,0) tid=(406,0,0)
GPGPU-Sim uArch: cycles simulated: 8500  inst.: 1723705 (ipc=202.8) sim_rate=29719 (inst/sec) elapsed = 0:0:00:58 / Thu Aug 14 11:03:56 2014
GPGPU-Sim PTX: 1800000 instructions simulated : ctaid=(52,0,0) tid=(333,0,0)
GPGPU-Sim PTX: 1900000 instructions simulated : ctaid=(47,0,0) tid=(287,0,0)
GPGPU-Sim uArch: cycles simulated: 9000  inst.: 1916532 (ipc=212.9) sim_rate=31942 (inst/sec) elapsed = 0:0:01:00 / Thu Aug 14 11:03:58 2014
GPGPU-Sim PTX: 2000000 instructions simulated : ctaid=(40,0,0) tid=(221,0,0)
GPGPU-Sim uArch: cycles simulated: 9500  inst.: 1985431 (ipc=209.0) sim_rate=32023 (inst/sec) elapsed = 0:0:01:02 / Thu Aug 14 11:04:00 2014
GPGPU-Sim PTX: 2100000 instructions simulated : ctaid=(55,0,0) tid=(4,0,0)
GPGPU-Sim uArch: cycles simulated: 10000  inst.: 2085966 (ipc=208.6) sim_rate=32593 (inst/sec) elapsed = 0:0:01:04 / Thu Aug 14 11:04:02 2014
GPGPU-Sim PTX: 2200000 instructions simulated : ctaid=(43,0,0) tid=(79,0,0)
GPGPU-Sim uArch: cycles simulated: 10500  inst.: 2232679 (ipc=212.6) sim_rate=33323 (inst/sec) elapsed = 0:0:01:07 / Thu Aug 14 11:04:05 2014
GPGPU-Sim PTX: 2300000 instructions simulated : ctaid=(52,0,0) tid=(105,0,0)
GPGPU-Sim uArch: cycles simulated: 11000  inst.: 2302543 (ipc=209.3) sim_rate=33860 (inst/sec) elapsed = 0:0:01:08 / Thu Aug 14 11:04:06 2014
GPGPU-Sim PTX: 2400000 instructions simulated : ctaid=(53,0,0) tid=(82,0,0)
GPGPU-Sim uArch: cycles simulated: 11500  inst.: 2396677 (ipc=208.4) sim_rate=34238 (inst/sec) elapsed = 0:0:01:10 / Thu Aug 14 11:04:08 2014
GPGPU-Sim PTX: 2500000 instructions simulated : ctaid=(44,0,0) tid=(454,0,0)
GPGPU-Sim uArch: cycles simulated: 12000  inst.: 2460506 (ipc=205.0) sim_rate=34655 (inst/sec) elapsed = 0:0:01:11 / Thu Aug 14 11:04:09 2014
GPGPU-Sim PTX: 2600000 instructions simulated : ctaid=(58,0,0) tid=(163,0,0)
GPGPU-Sim uArch: cycles simulated: 12500  inst.: 2535709 (ipc=202.9) sim_rate=34735 (inst/sec) elapsed = 0:0:01:13 / Thu Aug 14 11:04:11 2014
GPGPU-Sim uArch: Shader 8 finished CTA #0 (12774,0), 1 CTAs running
GPGPU-Sim uArch: core:  8, cta: 0 initialized @(12775,0)
GPGPU-Sim uArch: Shader 3 finished CTA #0 (12796,0), 1 CTAs running
GPGPU-Sim uArch: core:  3, cta: 0 initialized @(12797,0)
GPGPU-Sim uArch: Shader 3 finished CTA #1 (12821,0), 1 CTAs running
GPGPU-Sim uArch: core:  3, cta: 1 initialized @(12822,0)
GPGPU-Sim uArch: Shader 6 finished CTA #0 (12996,0), 1 CTAs running
GPGPU-Sim uArch: core:  6, cta: 0 initialized @(12997,0)
GPGPU-Sim uArch: Shader 14 finished CTA #1 (12998,0), 1 CTAs running
GPGPU-Sim uArch: core: 14, cta: 1 initialized @(12999,0)
GPGPU-Sim uArch: cycles simulated: 13000  inst.: 2604151 (ipc=200.3) sim_rate=35191 (inst/sec) elapsed = 0:0:01:14 / Thu Aug 14 11:04:12 2014
GPGPU-Sim uArch: Shader 12 finished CTA #0 (13008,0), 1 CTAs running
GPGPU-Sim uArch: core: 12, cta: 0 initialized @(13009,0)
GPGPU-Sim uArch: Shader 1 finished CTA #0 (13010,0), 1 CTAs running
GPGPU-Sim uArch: core:  1, cta: 0 initialized @(13011,0)
GPGPU-Sim uArch: Shader 6 finished CTA #1 (13013,0), 1 CTAs running
GPGPU-Sim uArch: core:  6, cta: 1 initialized @(13014,0)
GPGPU-Sim uArch: Shader 13 finished CTA #0 (13018,0), 1 CTAs running
GPGPU-Sim uArch: core: 13, cta: 0 initialized @(13019,0)
GPGPU-Sim uArch: Shader 11 finished CTA #0 (13024,0), 1 CTAs running
GPGPU-Sim uArch: core: 11, cta: 0 initialized @(13025,0)
GPGPU-Sim uArch: Shader 12 finished CTA #1 (13025,0), 1 CTAs running
GPGPU-Sim uArch: core: 12, cta: 1 initialized @(13026,0)
GPGPU-Sim PTX: 2700000 instructions simulated : ctaid=(61,0,0) tid=(432,0,0)
GPGPU-Sim uArch: Shader 2 finished CTA #1 (13189,0), 1 CTAs running
GPGPU-Sim uArch: core:  2, cta: 1 initialized @(13190,0)
GPGPU-Sim uArch: Shader 8 finished CTA #1 (13191,0), 1 CTAs running
GPGPU-Sim uArch: core:  8, cta: 1 initialized @(13192,0)
GPGPU-Sim uArch: Shader 11 finished CTA #1 (13193,0), 1 CTAs running
GPGPU-Sim uArch: core: 11, cta: 1 initialized @(13194,0)
GPGPU-Sim uArch: Shader 13 finished CTA #1 (13223,0), 1 CTAs running
GPGPU-Sim uArch: core: 13, cta: 1 initialized @(13224,0)
GPGPU-Sim uArch: Shader 4 finished CTA #0 (13275,0), 1 CTAs running
GPGPU-Sim uArch: core:  4, cta: 0 initialized @(13276,0)
GPGPU-Sim PTX: 2800000 instructions simulated : ctaid=(73,0,0) tid=(387,0,0)
GPGPU-Sim uArch: Shader 2 finished CTA #0 (13281,0), 1 CTAs running
GPGPU-Sim uArch: Shader 7 finished CTA #0 (13281,0), 1 CTAs running
GPGPU-Sim uArch: core:  7, cta: 0 initialized @(13282,0)
GPGPU-Sim uArch: core:  2, cta: 0 initialized @(13282,0)
GPGPU-Sim uArch: Shader 5 finished CTA #0 (13283,0), 1 CTAs running
GPGPU-Sim uArch: core:  5, cta: 0 initialized @(13284,0)
GPGPU-Sim uArch: Shader 9 finished CTA #1 (13287,0), 1 CTAs running
GPGPU-Sim uArch: core:  9, cta: 1 initialized @(13288,0)
GPGPU-Sim uArch: Shader 14 finished CTA #0 (13289,0), 1 CTAs running
GPGPU-Sim uArch: core: 14, cta: 0 initialized @(13290,0)
GPGPU-Sim uArch: Shader 4 finished CTA #1 (13292,0), 1 CTAs running
GPGPU-Sim uArch: core:  4, cta: 1 initialized @(13293,0)
GPGPU-Sim uArch: Shader 5 finished CTA #1 (13300,0), 1 CTAs running
GPGPU-Sim uArch: core:  5, cta: 1 initialized @(13301,0)
GPGPU-Sim uArch: Shader 1 finished CTA #1 (13359,0), 1 CTAs running
GPGPU-Sim uArch: core:  1, cta: 1 initialized @(13360,0)
GPGPU-Sim uArch: Shader 10 finished CTA #0 (13404,0), 1 CTAs running
GPGPU-Sim uArch: core: 10, cta: 0 initialized @(13405,0)
GPGPU-Sim uArch: Shader 10 finished CTA #1 (13440,0), 1 CTAs running
GPGPU-Sim uArch: core: 10, cta: 1 initialized @(13441,0)
GPGPU-Sim PTX: 2900000 instructions simulated : ctaid=(77,0,0) tid=(60,0,0)
GPGPU-Sim uArch: cycles simulated: 13500  inst.: 2818894 (ipc=208.8) sim_rate=36139 (inst/sec) elapsed = 0:0:01:18 / Thu Aug 14 11:04:16 2014
GPGPU-Sim uArch: Shader 0 finished CTA #0 (13601,0), 1 CTAs running
GPGPU-Sim uArch: core:  0, cta: 0 initialized @(13602,0)
GPGPU-Sim PTX: 3000000 instructions simulated : ctaid=(76,0,0) tid=(122,0,0)
GPGPU-Sim uArch: Shader 7 finished CTA #1 (13636,0), 1 CTAs running
GPGPU-Sim uArch: core:  7, cta: 1 initialized @(13637,0)
GPGPU-Sim uArch: Shader 9 finished CTA #0 (13643,0), 1 CTAs running
GPGPU-Sim uArch: core:  9, cta: 0 initialized @(13644,0)
GPGPU-Sim uArch: Shader 0 finished CTA #1 (13657,0), 1 CTAs running
GPGPU-Sim uArch: core:  0, cta: 1 initialized @(13658,0)
GPGPU-Sim PTX: 3100000 instructions simulated : ctaid=(60,0,0) tid=(231,0,0)
GPGPU-Sim uArch: cycles simulated: 14000  inst.: 3060948 (ipc=218.6) sim_rate=37789 (inst/sec) elapsed = 0:0:01:21 / Thu Aug 14 11:04:19 2014
GPGPU-Sim PTX: 3200000 instructions simulated : ctaid=(88,0,0) tid=(84,0,0)
GPGPU-Sim PTX: 3300000 instructions simulated : ctaid=(84,0,0) tid=(416,0,0)
GPGPU-Sim uArch: cycles simulated: 14500  inst.: 3223920 (ipc=222.3) sim_rate=38842 (inst/sec) elapsed = 0:0:01:23 / Thu Aug 14 11:04:21 2014
GPGPU-Sim PTX: 3400000 instructions simulated : ctaid=(65,0,0) tid=(146,0,0)
GPGPU-Sim uArch: cycles simulated: 15000  inst.: 3329163 (ipc=221.9) sim_rate=39632 (inst/sec) elapsed = 0:0:01:24 / Thu Aug 14 11:04:22 2014
GPGPU-Sim PTX: 3500000 instructions simulated : ctaid=(87,0,0) tid=(136,0,0)
GPGPU-Sim uArch: cycles simulated: 15500  inst.: 3460685 (ipc=223.3) sim_rate=40240 (inst/sec) elapsed = 0:0:01:26 / Thu Aug 14 11:04:24 2014
GPGPU-Sim PTX: 3600000 instructions simulated : ctaid=(84,0,0) tid=(80,0,0)
GPGPU-Sim uArch: cycles simulated: 16000  inst.: 3573139 (ipc=223.3) sim_rate=40603 (inst/sec) elapsed = 0:0:01:28 / Thu Aug 14 11:04:26 2014
GPGPU-Sim PTX: 3700000 instructions simulated : ctaid=(84,0,0) tid=(242,0,0)
GPGPU-Sim uArch: cycles simulated: 16500  inst.: 3644406 (ipc=220.9) sim_rate=40948 (inst/sec) elapsed = 0:0:01:29 / Thu Aug 14 11:04:27 2014
GPGPU-Sim PTX: 3800000 instructions simulated : ctaid=(71,0,0) tid=(350,0,0)
GPGPU-Sim uArch: cycles simulated: 17000  inst.: 3718434 (ipc=218.7) sim_rate=40861 (inst/sec) elapsed = 0:0:01:31 / Thu Aug 14 11:04:29 2014
GPGPU-Sim PTX: 3900000 instructions simulated : ctaid=(84,0,0) tid=(165,0,0)
GPGPU-Sim uArch: cycles simulated: 17500  inst.: 3791479 (ipc=216.7) sim_rate=40768 (inst/sec) elapsed = 0:0:01:33 / Thu Aug 14 11:04:31 2014
GPGPU-Sim uArch: Shader 3 finished CTA #0 (17565,0), 1 CTAs running
GPGPU-Sim uArch: core:  3, cta: 0 initialized @(17566,0)
GPGPU-Sim uArch: Shader 3 finished CTA #1 (17757,0), 1 CTAs running
GPGPU-Sim uArch: core:  3, cta: 1 initialized @(17758,0)
GPGPU-Sim uArch: cycles simulated: 18000  inst.: 3869951 (ipc=215.0) sim_rate=41169 (inst/sec) elapsed = 0:0:01:34 / Thu Aug 14 11:04:32 2014
GPGPU-Sim PTX: 4000000 instructions simulated : ctaid=(82,0,0) tid=(251,0,0)
GPGPU-Sim uArch: Shader 8 finished CTA #0 (18039,0), 1 CTAs running
GPGPU-Sim uArch: core:  8, cta: 0 initialized @(18040,0)
GPGPU-Sim uArch: Shader 13 finished CTA #1 (18108,0), 1 CTAs running
GPGPU-Sim uArch: core: 13, cta: 1 initialized @(18109,0)
GPGPU-Sim uArch: Shader 12 finished CTA #1 (18110,0), 1 CTAs running
GPGPU-Sim uArch: core: 12, cta: 1 initialized @(18111,0)
GPGPU-Sim uArch: Shader 12 finished CTA #0 (18150,0), 1 CTAs running
GPGPU-Sim uArch: core: 12, cta: 0 initialized @(18151,0)
GPGPU-Sim uArch: Shader 6 finished CTA #0 (18282,0), 1 CTAs running
GPGPU-Sim uArch: core:  6, cta: 0 initialized @(18283,0)
GPGPU-Sim uArch: Shader 11 finished CTA #0 (18300,0), 1 CTAs running
GPGPU-Sim uArch: core: 11, cta: 0 initialized @(18301,0)
GPGPU-Sim uArch: Shader 2 finished CTA #0 (18302,0), 1 CTAs running
GPGPU-Sim uArch: core:  2, cta: 0 initialized @(18303,0)
GPGPU-Sim uArch: Shader 13 finished CTA #0 (18305,0), 1 CTAs running
GPGPU-Sim uArch: core: 13, cta: 0 initialized @(18306,0)
GPGPU-Sim uArch: Shader 11 finished CTA #1 (18317,0), 1 CTAs running
GPGPU-Sim uArch: core: 11, cta: 1 initialized @(18318,0)
GPGPU-Sim uArch: Shader 2 finished CTA #1 (18319,0), 1 CTAs running
GPGPU-Sim uArch: core:  2, cta: 1 initialized @(18320,0)
GPGPU-Sim uArch: Shader 7 finished CTA #0 (18354,0), 1 CTAs running
GPGPU-Sim uArch: core:  7, cta: 0 initialized @(18355,0)
GPGPU-Sim uArch: Shader 8 finished CTA #1 (18391,0), 1 CTAs running
GPGPU-Sim uArch: core:  8, cta: 1 initialized @(18392,0)
GPGPU-Sim PTX: 4100000 instructions simulated : ctaid=(101,0,0) tid=(330,0,0)
GPGPU-Sim uArch: cycles simulated: 18500  inst.: 4013247 (ipc=216.9) sim_rate=41373 (inst/sec) elapsed = 0:0:01:37 / Thu Aug 14 11:04:35 2014
GPGPU-Sim PTX: 4200000 instructions simulated : ctaid=(100,0,0) tid=(279,0,0)
GPGPU-Sim uArch: Shader 14 finished CTA #1 (18700,0), 1 CTAs running
GPGPU-Sim uArch: core: 14, cta: 1 initialized @(18701,0)
GPGPU-Sim uArch: Shader 1 finished CTA #0 (18703,0), 1 CTAs running
GPGPU-Sim uArch: core:  1, cta: 0 initialized @(18704,0)
GPGPU-Sim uArch: Shader 10 finished CTA #0 (18725,0), 1 CTAs running
GPGPU-Sim uArch: core: 10, cta: 0 initialized @(18726,0)
GPGPU-Sim uArch: Shader 10 finished CTA #1 (18742,0), 1 CTAs running
GPGPU-Sim uArch: core: 10, cta: 1 initialized @(18743,0)
GPGPU-Sim uArch: Shader 0 finished CTA #1 (18790,0), 1 CTAs running
GPGPU-Sim uArch: core:  0, cta: 1 initialized @(18791,0)
GPGPU-Sim uArch: Shader 9 finished CTA #0 (18792,0), 1 CTAs running
GPGPU-Sim uArch: core:  9, cta: 0 initialized @(18793,0)
GPGPU-Sim uArch: Shader 5 finished CTA #1 (18825,0), 1 CTAs running
GPGPU-Sim uArch: core:  5, cta: 1 initialized @(18826,0)
GPGPU-Sim uArch: Shader 0 finished CTA #0 (18873,0), 1 CTAs running
GPGPU-Sim uArch: core:  0, cta: 0 initialized @(18874,0)
GPGPU-Sim PTX: 4300000 instructions simulated : ctaid=(109,0,0) tid=(40,0,0)
GPGPU-Sim uArch: Shader 7 finished CTA #1 (18927,0), 1 CTAs running
GPGPU-Sim uArch: core:  7, cta: 1 initialized @(18928,0)
GPGPU-Sim uArch: Shader 6 finished CTA #1 (18929,0), 1 CTAs running
GPGPU-Sim uArch: core:  6, cta: 1 initialized @(18930,0)
GPGPU-Sim uArch: Shader 9 finished CTA #1 (18931,0), 1 CTAs running
GPGPU-Sim uArch: core:  9, cta: 1 initialized @(18932,0)
GPGPU-Sim uArch: Shader 4 finished CTA #1 (18934,0), 1 CTAs running
GPGPU-Sim uArch: core:  4, cta: 1 initialized @(18935,0)
GPGPU-Sim uArch: Shader 14 finished CTA #0 (18955,0), 1 CTAs running
GPGPU-Sim uArch: core: 14, cta: 0 initialized @(18956,0)
GPGPU-Sim uArch: Shader 5 finished CTA #0 (18956,0), 1 CTAs running
GPGPU-Sim uArch: core:  5, cta: 0 initialized @(18957,0)
GPGPU-Sim uArch: cycles simulated: 19000  inst.: 4205815 (ipc=221.4) sim_rate=42058 (inst/sec) elapsed = 0:0:01:40 / Thu Aug 14 11:04:38 2014
GPGPU-Sim PTX: 4400000 instructions simulated : ctaid=(111,0,0) tid=(69,0,0)
GPGPU-Sim uArch: Shader 4 finished CTA #0 (19141,0), 1 CTAs running
GPGPU-Sim uArch: core:  4, cta: 0 initialized @(19142,0)
GPGPU-Sim PTX: 4500000 instructions simulated : ctaid=(98,0,0) tid=(417,0,0)
GPGPU-Sim uArch: Shader 1 finished CTA #1 (19496,0), 1 CTAs running
GPGPU-Sim uArch: core:  1, cta: 1 initialized @(19497,0)
GPGPU-Sim uArch: cycles simulated: 19500  inst.: 4435193 (ipc=227.4) sim_rate=43060 (inst/sec) elapsed = 0:0:01:43 / Thu Aug 14 11:04:41 2014
GPGPU-Sim PTX: 4600000 instructions simulated : ctaid=(92,0,0) tid=(154,0,0)
GPGPU-Sim PTX: 4700000 instructions simulated : ctaid=(90,0,0) tid=(398,0,0)
GPGPU-Sim uArch: cycles simulated: 20000  inst.: 4581600 (ipc=229.1) sim_rate=43634 (inst/sec) elapsed = 0:0:01:45 / Thu Aug 14 11:04:43 2014
GPGPU-Sim PTX: 4800000 instructions simulated : ctaid=(94,0,0) tid=(20,0,0)
GPGPU-Sim uArch: cycles simulated: 20500  inst.: 4695616 (ipc=229.1) sim_rate=43884 (inst/sec) elapsed = 0:0:01:47 / Thu Aug 14 11:04:45 2014
GPGPU-Sim PTX: 4900000 instructions simulated : ctaid=(92,0,0) tid=(226,0,0)
GPGPU-Sim uArch: cycles simulated: 21000  inst.: 4803574 (ipc=228.7) sim_rate=44069 (inst/sec) elapsed = 0:0:01:49 / Thu Aug 14 11:04:47 2014
GPGPU-Sim PTX: 5000000 instructions simulated : ctaid=(118,0,0) tid=(65,0,0)
GPGPU-Sim uArch: cycles simulated: 21500  inst.: 4911778 (ipc=228.5) sim_rate=44250 (inst/sec) elapsed = 0:0:01:51 / Thu Aug 14 11:04:49 2014
GPGPU-Sim PTX: 5100000 instructions simulated : ctaid=(107,0,0) tid=(441,0,0)
GPGPU-Sim uArch: Shader 3 finished CTA #1 (21997,0), 1 CTAs running
GPGPU-Sim uArch: core:  3, cta: 1 initialized @(21998,0)
GPGPU-Sim uArch: cycles simulated: 22000  inst.: 4979807 (ipc=226.4) sim_rate=44462 (inst/sec) elapsed = 0:0:01:52 / Thu Aug 14 11:04:50 2014
GPGPU-Sim uArch: Shader 3 finished CTA #0 (22022,0), 1 CTAs running
GPGPU-Sim uArch: core:  3, cta: 0 initialized @(22023,0)
GPGPU-Sim PTX: 5200000 instructions simulated : ctaid=(121,0,0) tid=(326,0,0)
GPGPU-Sim uArch: cycles simulated: 22500  inst.: 5077473 (ipc=225.7) sim_rate=44539 (inst/sec) elapsed = 0:0:01:54 / Thu Aug 14 11:04:52 2014
GPGPU-Sim uArch: Shader 12 finished CTA #0 (22875,0), 1 CTAs running
GPGPU-Sim uArch: core: 12, cta: 0 initialized @(22876,0)
GPGPU-Sim uArch: Shader 12 finished CTA #1 (22892,0), 1 CTAs running
GPGPU-Sim uArch: core: 12, cta: 1 initialized @(22893,0)
GPGPU-Sim PTX: 5300000 instructions simulated : ctaid=(111,0,0) tid=(99,0,0)
GPGPU-Sim uArch: cycles simulated: 23000  inst.: 5141361 (ipc=223.5) sim_rate=44322 (inst/sec) elapsed = 0:0:01:56 / Thu Aug 14 11:04:54 2014
GPGPU-Sim uArch: Shader 8 finished CTA #0 (23006,0), 1 CTAs running
GPGPU-Sim uArch: core:  8, cta: 0 initialized @(23007,0)
GPGPU-Sim uArch: Shader 13 finished CTA #1 (23055,0), 1 CTAs running
GPGPU-Sim uArch: core: 13, cta: 1 initialized @(23056,0)
GPGPU-Sim uArch: Shader 11 finished CTA #0 (23194,0), 1 CTAs running
GPGPU-Sim uArch: core: 11, cta: 0 initialized @(23195,0)
GPGPU-Sim uArch: Shader 13 finished CTA #0 (23214,0), 1 CTAs running
GPGPU-Sim uArch: core: 13, cta: 0 initialized @(23215,0)
GPGPU-Sim uArch: Shader 11 finished CTA #1 (23219,0), 1 CTAs running
GPGPU-Sim uArch: core: 11, cta: 1 initialized @(23220,0)
GPGPU-Sim uArch: Shader 2 finished CTA #1 (23229,0), 1 CTAs running
GPGPU-Sim uArch: core:  2, cta: 1 initialized @(23230,0)
GPGPU-Sim PTX: 5400000 instructions simulated : ctaid=(127,0,0) tid=(194,0,0)
GPGPU-Sim uArch: Shader 8 finished CTA #1 (23342,0), 1 CTAs running
GPGPU-Sim uArch: core:  8, cta: 1 initialized @(23343,0)
GPGPU-Sim uArch: Shader 2 finished CTA #0 (23344,0), 1 CTAs running
GPGPU-Sim uArch: core:  2, cta: 0 initialized @(23345,0)
GPGPU-Sim uArch: cycles simulated: 23500  inst.: 5280100 (ipc=224.7) sim_rate=44370 (inst/sec) elapsed = 0:0:01:59 / Thu Aug 14 11:04:57 2014
GPGPU-Sim uArch: Shader 1 finished CTA #0 (23674,0), 1 CTAs running
GPGPU-Sim uArch: core:  1, cta: 0 initialized @(23675,0)
GPGPU-Sim PTX: 5500000 instructions simulated : ctaid=(123,0,0) tid=(375,0,0)
GPGPU-Sim uArch: Shader 0 finished CTA #1 (23955,0), 1 CTAs running
GPGPU-Sim uArch: core:  0, cta: 1 initialized @(23956,0)
GPGPU-Sim uArch: Shader 10 finished CTA #1 (23963,0), 1 CTAs running
GPGPU-Sim uArch: core: 10, cta: 1 initialized @(23964,0)
GPGPU-Sim uArch: Shader 4 finished CTA #0 (23979,0), 1 CTAs running
GPGPU-Sim uArch: core:  4, cta: 0 initialized @(23980,0)
GPGPU-Sim uArch: Shader 6 finished CTA #0 (23981,0), 1 CTAs running
GPGPU-Sim uArch: core:  6, cta: 0 initialized @(23982,0)
GPGPU-Sim uArch: Shader 0 finished CTA #0 (23990,0), 1 CTAs running
GPGPU-Sim uArch: core:  0, cta: 0 initialized @(23991,0)
GPGPU-Sim uArch: cycles simulated: 24000  inst.: 5390121 (ipc=224.6) sim_rate=44546 (inst/sec) elapsed = 0:0:02:01 / Thu Aug 14 11:04:59 2014
GPGPU-Sim uArch: Shader 10 finished CTA #0 (24021,0), 1 CTAs running
GPGPU-Sim uArch: core: 10, cta: 0 initialized @(24022,0)
GPGPU-Sim uArch: Shader 14 finished CTA #1 (24032,0), 1 CTAs running
GPGPU-Sim uArch: core: 14, cta: 1 initialized @(24033,0)
GPGPU-Sim uArch: Shader 5 finished CTA #1 (24064,0), 1 CTAs running
GPGPU-Sim uArch: core:  5, cta: 1 initialized @(24065,0)
GPGPU-Sim PTX: 5600000 instructions simulated : ctaid=(136,0,0) tid=(11,0,0)
GPGPU-Sim uArch: Shader 4 finished CTA #1 (24110,0), 1 CTAs running
GPGPU-Sim uArch: core:  4, cta: 1 initialized @(24111,0)
GPGPU-Sim uArch: Shader 9 finished CTA #0 (24202,0), 1 CTAs running
GPGPU-Sim uArch: core:  9, cta: 0 initialized @(24203,0)
GPGPU-Sim uArch: Shader 7 finished CTA #0 (24228,0), 1 CTAs running
GPGPU-Sim uArch: core:  7, cta: 0 initialized @(24229,0)
GPGPU-Sim PTX: 5700000 instructions simulated : ctaid=(141,0,0) tid=(380,0,0)
GPGPU-Sim uArch: Shader 7 finished CTA #1 (24320,0), 1 CTAs running
GPGPU-Sim uArch: core:  7, cta: 1 initialized @(24321,0)
GPGPU-Sim uArch: Shader 1 finished CTA #1 (24461,0), 1 CTAs running
GPGPU-Sim uArch: core:  1, cta: 1 initialized @(24462,0)
GPGPU-Sim uArch: cycles simulated: 24500  inst.: 5621393 (ipc=229.4) sim_rate=45333 (inst/sec) elapsed = 0:0:02:04 / Thu Aug 14 11:05:02 2014
GPGPU-Sim PTX: 5800000 instructions simulated : ctaid=(140,0,0) tid=(504,0,0)
GPGPU-Sim uArch: Shader 14 finished CTA #0 (24595,0), 1 CTAs running
GPGPU-Sim uArch: core: 14, cta: 0 initialized @(24596,0)
GPGPU-Sim uArch: Shader 5 finished CTA #0 (24704,0), 1 CTAs running
GPGPU-Sim uArch: core:  5, cta: 0 initialized @(24705,0)
GPGPU-Sim PTX: 5900000 instructions simulated : ctaid=(146,0,0) tid=(45,0,0)
GPGPU-Sim uArch: Shader 6 finished CTA #1 (24883,0), 1 CTAs running
GPGPU-Sim uArch: core:  6, cta: 1 initialized @(24884,0)
GPGPU-Sim uArch: Shader 9 finished CTA #1 (24996,0), 1 CTAs running
GPGPU-Sim uArch: core:  9, cta: 1 initialized @(24997,0)
GPGPU-Sim uArch: cycles simulated: 25000  inst.: 5793018 (ipc=231.7) sim_rate=45976 (inst/sec) elapsed = 0:0:02:06 / Thu Aug 14 11:05:04 2014
GPGPU-Sim PTX: 6000000 instructions simulated : ctaid=(129,0,0) tid=(336,0,0)
GPGPU-Sim PTX: 6100000 instructions simulated : ctaid=(133,0,0) tid=(426,0,0)
GPGPU-Sim uArch: cycles simulated: 25500  inst.: 5927448 (ipc=232.4) sim_rate=45949 (inst/sec) elapsed = 0:0:02:09 / Thu Aug 14 11:05:07 2014
GPGPU-Sim PTX: 6200000 instructions simulated : ctaid=(135,0,0) tid=(472,0,0)
GPGPU-Sim uArch: cycles simulated: 26000  inst.: 6034803 (ipc=232.1) sim_rate=46421 (inst/sec) elapsed = 0:0:02:10 / Thu Aug 14 11:05:08 2014
GPGPU-Sim PTX: 6300000 instructions simulated : ctaid=(123,0,0) tid=(266,0,0)
GPGPU-Sim uArch: cycles simulated: 26500  inst.: 6154337 (ipc=232.2) sim_rate=46623 (inst/sec) elapsed = 0:0:02:12 / Thu Aug 14 11:05:10 2014
GPGPU-Sim PTX: 6400000 instructions simulated : ctaid=(149,0,0) tid=(220,0,0)
GPGPU-Sim uArch: cycles simulated: 27000  inst.: 6247297 (ipc=231.4) sim_rate=46621 (inst/sec) elapsed = 0:0:02:14 / Thu Aug 14 11:05:12 2014
GPGPU-Sim uArch: Shader 3 finished CTA #0 (27270,0), 1 CTAs running
GPGPU-Sim uArch: core:  3, cta: 0 initialized @(27271,0)
GPGPU-Sim uArch: Shader 3 finished CTA #1 (27287,0), 1 CTAs running
GPGPU-Sim uArch: core:  3, cta: 1 initialized @(27288,0)
GPGPU-Sim PTX: 6500000 instructions simulated : ctaid=(145,0,0) tid=(25,0,0)
GPGPU-Sim uArch: cycles simulated: 27500  inst.: 6336643 (ipc=230.4) sim_rate=46592 (inst/sec) elapsed = 0:0:02:16 / Thu Aug 14 11:05:14 2014
GPGPU-Sim PTX: 6600000 instructions simulated : ctaid=(143,0,0) tid=(239,0,0)
GPGPU-Sim uArch: Shader 12 finished CTA #1 (27939,0), 1 CTAs running
GPGPU-Sim uArch: core: 12, cta: 1 initialized @(27940,0)
GPGPU-Sim uArch: cycles simulated: 28000  inst.: 6412713 (ipc=229.0) sim_rate=46468 (inst/sec) elapsed = 0:0:02:18 / Thu Aug 14 11:05:16 2014
GPGPU-Sim uArch: Shader 13 finished CTA #0 (28071,0), 1 CTAs running
GPGPU-Sim uArch: core: 13, cta: 0 initialized @(28072,0)
GPGPU-Sim uArch: Shader 12 finished CTA #0 (28077,0), 1 CTAs running
GPGPU-Sim uArch: core: 12, cta: 0 initialized @(28078,0)
GPGPU-Sim uArch: Shader 13 finished CTA #1 (28219,0), 1 CTAs running
GPGPU-Sim uArch: core: 13, cta: 1 initialized @(28220,0)
GPGPU-Sim uArch: Shader 2 finished CTA #0 (28314,0), 1 CTAs running
GPGPU-Sim uArch: core:  2, cta: 0 initialized @(28315,0)
GPGPU-Sim PTX: 6700000 instructions simulated : ctaid=(142,0,0) tid=(99,0,0)
GPGPU-Sim uArch: Shader 2 finished CTA #1 (28331,0), 1 CTAs running
GPGPU-Sim uArch: core:  2, cta: 1 initialized @(28332,0)
GPGPU-Sim uArch: Shader 11 finished CTA #0 (28444,0), 1 CTAs running
GPGPU-Sim uArch: core: 11, cta: 0 initialized @(28445,0)
GPGPU-Sim uArch: Shader 8 finished CTA #0 (28446,0), 1 CTAs running
GPGPU-Sim uArch: core:  8, cta: 0 initialized @(28447,0)
GPGPU-Sim uArch: cycles simulated: 28500  inst.: 6539955 (ipc=229.5) sim_rate=46713 (inst/sec) elapsed = 0:0:02:20 / Thu Aug 14 11:05:18 2014
GPGPU-Sim PTX: 6800000 instructions simulated : ctaid=(158,0,0) tid=(414,0,0)
GPGPU-Sim uArch: Shader 8 finished CTA #1 (28738,0), 1 CTAs running
GPGPU-Sim uArch: core:  8, cta: 1 initialized @(28739,0)
GPGPU-Sim uArch: Shader 1 finished CTA #0 (28740,0), 1 CTAs running
GPGPU-Sim uArch: core:  1, cta: 0 initialized @(28741,0)
GPGPU-Sim uArch: Shader 0 finished CTA #0 (28742,0), 1 CTAs running
GPGPU-Sim uArch: core:  0, cta: 0 initialized @(28743,0)
GPGPU-Sim uArch: Shader 0 finished CTA #1 (28825,0), 1 CTAs running
GPGPU-Sim uArch: core:  0, cta: 1 initialized @(28826,0)
GPGPU-Sim uArch: Shader 4 finished CTA #1 (28934,0), 1 CTAs running
GPGPU-Sim uArch: core:  4, cta: 1 initialized @(28935,0)
GPGPU-Sim uArch: Shader 14 finished CTA #1 (28973,0), 1 CTAs running
GPGPU-Sim uArch: core: 14, cta: 1 initialized @(28974,0)
GPGPU-Sim uArch: cycles simulated: 29000  inst.: 6685603 (ipc=230.5) sim_rate=46752 (inst/sec) elapsed = 0:0:02:23 / Thu Aug 14 11:05:21 2014
GPGPU-Sim PTX: 6900000 instructions simulated : ctaid=(164,0,0) tid=(229,0,0)
GPGPU-Sim uArch: Shader 10 finished CTA #0 (29081,0), 1 CTAs running
GPGPU-Sim uArch: core: 10, cta: 0 initialized @(29082,0)
GPGPU-Sim uArch: Shader 10 finished CTA #1 (29106,0), 1 CTAs running
GPGPU-Sim uArch: core: 10, cta: 1 initialized @(29107,0)
GPGPU-Sim uArch: Shader 4 finished CTA #0 (29121,0), 1 CTAs running
GPGPU-Sim uArch: core:  4, cta: 0 initialized @(29122,0)
GPGPU-Sim uArch: Shader 11 finished CTA #1 (29182,0), 1 CTAs running
GPGPU-Sim uArch: core: 11, cta: 1 initialized @(29183,0)
GPGPU-Sim PTX: 7000000 instructions simulated : ctaid=(169,0,0) tid=(507,0,0)
GPGPU-Sim uArch: Shader 9 finished CTA #0 (29358,0), 1 CTAs running
GPGPU-Sim uArch: core:  9, cta: 0 initialized @(29359,0)
GPGPU-Sim uArch: cycles simulated: 29500  inst.: 6853860 (ipc=232.3) sim_rate=46944 (inst/sec) elapsed = 0:0:02:26 / Thu Aug 14 11:05:24 2014
GPGPU-Sim uArch: Shader 1 finished CTA #1 (29520,0), 1 CTAs running
GPGPU-Sim uArch: core:  1, cta: 1 initialized @(29521,0)
GPGPU-Sim uArch: Shader 6 finished CTA #0 (29543,0), 1 CTAs running
GPGPU-Sim uArch: core:  6, cta: 0 initialized @(29544,0)
GPGPU-Sim PTX: 7100000 instructions simulated : ctaid=(171,0,0) tid=(188,0,0)
GPGPU-Sim uArch: Shader 5 finished CTA #1 (29711,0), 1 CTAs running
GPGPU-Sim uArch: core:  5, cta: 1 initialized @(29712,0)
GPGPU-Sim uArch: Shader 9 finished CTA #1 (29713,0), 1 CTAs running
GPGPU-Sim uArch: core:  9, cta: 1 initialized @(29714,0)
GPGPU-Sim PTX: 7200000 instructions simulated : ctaid=(173,0,0) tid=(103,0,0)
GPGPU-Sim uArch: Shader 14 finished CTA #0 (29964,0), 1 CTAs running
GPGPU-Sim uArch: core: 14, cta: 0 initialized @(29965,0)
GPGPU-Sim uArch: cycles simulated: 30000  inst.: 7021366 (ipc=234.0) sim_rate=47123 (inst/sec) elapsed = 0:0:02:29 / Thu Aug 14 11:05:27 2014
GPGPU-Sim PTX: 7300000 instructions simulated : ctaid=(175,0,0) tid=(185,0,0)
GPGPU-Sim uArch: Shader 5 finished CTA #0 (30176,0), 1 CTAs running
GPGPU-Sim uArch: core:  5, cta: 0 initialized @(30177,0)
GPGPU-Sim uArch: Shader 7 finished CTA #0 (30192,0), 1 CTAs running
GPGPU-Sim uArch: core:  7, cta: 0 initialized @(30193,0)
GPGPU-Sim uArch: Shader 7 finished CTA #1 (30352,0), 1 CTAs running
GPGPU-Sim uArch: core:  7, cta: 1 initialized @(30353,0)
GPGPU-Sim uArch: Shader 6 finished CTA #1 (30445,0), 1 CTAs running
GPGPU-Sim uArch: core:  6, cta: 1 initialized @(30446,0)
GPGPU-Sim PTX: 7400000 instructions simulated : ctaid=(176,0,0) tid=(4,0,0)
GPGPU-Sim uArch: cycles simulated: 30500  inst.: 7182054 (ipc=235.5) sim_rate=47563 (inst/sec) elapsed = 0:0:02:31 / Thu Aug 14 11:05:29 2014
GPGPU-Sim PTX: 7500000 instructions simulated : ctaid=(154,0,0) tid=(207,0,0)
GPGPU-Sim uArch: cycles simulated: 31000  inst.: 7313294 (ipc=235.9) sim_rate=47799 (inst/sec) elapsed = 0:0:02:33 / Thu Aug 14 11:05:31 2014
GPGPU-Sim PTX: 7600000 instructions simulated : ctaid=(162,0,0) tid=(214,0,0)
GPGPU-Sim uArch: cycles simulated: 31500  inst.: 7433999 (ipc=236.0) sim_rate=47961 (inst/sec) elapsed = 0:0:02:35 / Thu Aug 14 11:05:33 2014
GPGPU-Sim PTX: 7700000 instructions simulated : ctaid=(151,0,0) tid=(224,0,0)
GPGPU-Sim uArch: cycles simulated: 32000  inst.: 7505356 (ipc=234.5) sim_rate=47804 (inst/sec) elapsed = 0:0:02:37 / Thu Aug 14 11:05:35 2014
GPGPU-Sim uArch: Shader 3 finished CTA #0 (32245,0), 1 CTAs running
GPGPU-Sim uArch: core:  3, cta: 0 initialized @(32246,0)
GPGPU-Sim uArch: Shader 3 finished CTA #1 (32262,0), 1 CTAs running
GPGPU-Sim uArch: core:  3, cta: 1 initialized @(32263,0)
GPGPU-Sim PTX: 7800000 instructions simulated : ctaid=(180,0,0) tid=(272,0,0)
GPGPU-Sim uArch: cycles simulated: 32500  inst.: 7606072 (ipc=234.0) sim_rate=47836 (inst/sec) elapsed = 0:0:02:39 / Thu Aug 14 11:05:37 2014
GPGPU-Sim uArch: Shader 12 finished CTA #1 (32652,0), 1 CTAs running
GPGPU-Sim uArch: core: 12, cta: 1 initialized @(32653,0)
GPGPU-Sim PTX: 7900000 instructions simulated : ctaid=(177,0,0) tid=(428,0,0)
GPGPU-Sim uArch: Shader 12 finished CTA #0 (32890,0), 1 CTAs running
GPGPU-Sim uArch: core: 12, cta: 0 initialized @(32891,0)
GPGPU-Sim uArch: cycles simulated: 33000  inst.: 7707294 (ipc=233.6) sim_rate=47871 (inst/sec) elapsed = 0:0:02:41 / Thu Aug 14 11:05:39 2014
GPGPU-Sim uArch: Shader 13 finished CTA #0 (33023,0), 1 CTAs running
GPGPU-Sim uArch: core: 13, cta: 0 initialized @(33024,0)
GPGPU-Sim uArch: Shader 13 finished CTA #1 (33116,0), 1 CTAs running
GPGPU-Sim uArch: core: 13, cta: 1 initialized @(33117,0)
GPGPU-Sim PTX: 8000000 instructions simulated : ctaid=(164,0,0) tid=(368,0,0)
GPGPU-Sim uArch: Shader 2 finished CTA #0 (33359,0), 1 CTAs running
GPGPU-Sim uArch: core:  2, cta: 0 initialized @(33360,0)
GPGPU-Sim uArch: Shader 2 finished CTA #1 (33442,0), 1 CTAs running
GPGPU-Sim uArch: core:  2, cta: 1 initialized @(33443,0)
GPGPU-Sim uArch: cycles simulated: 33500  inst.: 7829520 (ipc=233.7) sim_rate=48033 (inst/sec) elapsed = 0:0:02:43 / Thu Aug 14 11:05:41 2014
GPGPU-Sim uArch: Shader 14 finished CTA #1 (33534,0), 1 CTAs running
GPGPU-Sim uArch: core: 14, cta: 1 initialized @(33535,0)
GPGPU-Sim uArch: Shader 11 finished CTA #0 (33580,0), 1 CTAs running
GPGPU-Sim uArch: core: 11, cta: 0 initialized @(33581,0)
GPGPU-Sim uArch: Shader 10 finished CTA #1 (33581,0), 1 CTAs running
GPGPU-Sim uArch: core: 10, cta: 1 initialized @(33582,0)
GPGPU-Sim PTX: 8100000 instructions simulated : ctaid=(187,0,0) tid=(170,0,0)
GPGPU-Sim uArch: Shader 1 finished CTA #1 (33800,0), 1 CTAs running
GPGPU-Sim uArch: core:  1, cta: 1 initialized @(33801,0)
GPGPU-Sim uArch: Shader 4 finished CTA #1 (33802,0), 1 CTAs running
GPGPU-Sim uArch: core:  4, cta: 1 initialized @(33803,0)
GPGPU-Sim uArch: Shader 4 finished CTA #0 (33819,0), 1 CTAs running
GPGPU-Sim uArch: core:  4, cta: 0 initialized @(33820,0)
GPGPU-Sim uArch: Shader 8 finished CTA #0 (33843,0), 1 CTAs running
GPGPU-Sim uArch: core:  8, cta: 0 initialized @(33844,0)
GPGPU-Sim uArch: Shader 10 finished CTA #0 (33862,0), 1 CTAs running
GPGPU-Sim uArch: core: 10, cta: 0 initialized @(33863,0)
GPGPU-Sim PTX: 8200000 instructions simulated : ctaid=(194,0,0) tid=(66,0,0)
GPGPU-Sim uArch: Shader 0 finished CTA #0 (33971,0), 1 CTAs running
GPGPU-Sim uArch: core:  0, cta: 0 initialized @(33972,0)
GPGPU-Sim uArch: cycles simulated: 34000  inst.: 7978544 (ipc=234.7) sim_rate=48063 (inst/sec) elapsed = 0:0:02:46 / Thu Aug 14 11:05:44 2014
GPGPU-Sim uArch: Shader 0 finished CTA #1 (34010,0), 1 CTAs running
GPGPU-Sim uArch: core:  0, cta: 1 initialized @(34011,0)
GPGPU-Sim uArch: Shader 11 finished CTA #1 (34098,0), 1 CTAs running
GPGPU-Sim uArch: core: 11, cta: 1 initialized @(34099,0)
GPGPU-Sim uArch: Shader 1 finished CTA #0 (34100,0), 1 CTAs running
GPGPU-Sim uArch: core:  1, cta: 0 initialized @(34101,0)
GPGPU-Sim PTX: 8300000 instructions simulated : ctaid=(193,0,0) tid=(441,0,0)
GPGPU-Sim uArch: Shader 9 finished CTA #0 (34197,0), 1 CTAs running
GPGPU-Sim uArch: core:  9, cta: 0 initialized @(34198,0)
GPGPU-Sim uArch: Shader 9 finished CTA #1 (34320,0), 1 CTAs running
GPGPU-Sim uArch: core:  9, cta: 1 initialized @(34321,0)
GPGPU-Sim PTX: 8400000 instructions simulated : ctaid=(193,0,0) tid=(320,0,0)
GPGPU-Sim uArch: cycles simulated: 34500  inst.: 8157574 (ipc=236.5) sim_rate=48269 (inst/sec) elapsed = 0:0:02:49 / Thu Aug 14 11:05:47 2014
GPGPU-Sim uArch: Shader 8 finished CTA #1 (34520,0), 1 CTAs running
GPGPU-Sim uArch: core:  8, cta: 1 initialized @(34521,0)
GPGPU-Sim PTX: 8500000 instructions simulated : ctaid=(179,0,0) tid=(104,0,0)
GPGPU-Sim uArch: Shader 14 finished CTA #0 (34828,0), 1 CTAs running
GPGPU-Sim uArch: core: 14, cta: 0 initialized @(34829,0)
GPGPU-Sim uArch: Shader 5 finished CTA #1 (34904,0), 1 CTAs running
GPGPU-Sim uArch: core:  5, cta: 1 initialized @(34905,0)
GPGPU-Sim uArch: Shader 6 finished CTA #0 (34957,0), 1 CTAs running
GPGPU-Sim uArch: core:  6, cta: 0 initialized @(34958,0)
GPGPU-Sim uArch: cycles simulated: 35000  inst.: 8327449 (ipc=237.9) sim_rate=48698 (inst/sec) elapsed = 0:0:02:51 / Thu Aug 14 11:05:49 2014
GPGPU-Sim PTX: 8600000 instructions simulated : ctaid=(182,0,0) tid=(483,0,0)
GPGPU-Sim uArch: Shader 7 finished CTA #1 (35409,0), 1 CTAs running
GPGPU-Sim uArch: core:  7, cta: 1 initialized @(35410,0)
GPGPU-Sim PTX: 8700000 instructions simulated : ctaid=(206,0,0) tid=(467,0,0)
GPGPU-Sim uArch: cycles simulated: 35500  inst.: 8452575 (ipc=238.1) sim_rate=48858 (inst/sec) elapsed = 0:0:02:53 / Thu Aug 14 11:05:51 2014
GPGPU-Sim uArch: Shader 6 finished CTA #1 (35500,0), 1 CTAs running
GPGPU-Sim uArch: core:  6, cta: 1 initialized @(35501,0)
GPGPU-Sim uArch: Shader 7 finished CTA #0 (35524,0), 1 CTAs running
GPGPU-Sim uArch: core:  7, cta: 0 initialized @(35525,0)
GPGPU-Sim uArch: Shader 5 finished CTA #0 (35529,0), 1 CTAs running
GPGPU-Sim uArch: core:  5, cta: 0 initialized @(35530,0)
GPGPU-Sim PTX: 8800000 instructions simulated : ctaid=(182,0,0) tid=(246,0,0)
GPGPU-Sim uArch: cycles simulated: 36000  inst.: 8610225 (ipc=239.2) sim_rate=48921 (inst/sec) elapsed = 0:0:02:56 / Thu Aug 14 11:05:54 2014
GPGPU-Sim PTX: 8900000 instructions simulated : ctaid=(195,0,0) tid=(107,0,0)
GPGPU-Sim uArch: cycles simulated: 36500  inst.: 8721035 (ipc=238.9) sim_rate=48994 (inst/sec) elapsed = 0:0:02:58 / Thu Aug 14 11:05:56 2014
GPGPU-Sim PTX: 9000000 instructions simulated : ctaid=(205,0,0) tid=(502,0,0)
GPGPU-Sim uArch: cycles simulated: 37000  inst.: 8808343 (ipc=238.1) sim_rate=48935 (inst/sec) elapsed = 0:0:03:00 / Thu Aug 14 11:05:58 2014
GPGPU-Sim PTX: 9100000 instructions simulated : ctaid=(200,0,0) tid=(341,0,0)
GPGPU-Sim uArch: Shader 3 finished CTA #1 (37251,0), 1 CTAs running
GPGPU-Sim uArch: core:  3, cta: 1 initialized @(37252,0)
GPGPU-Sim uArch: Shader 3 finished CTA #0 (37418,0), 1 CTAs running
GPGPU-Sim uArch: core:  3, cta: 0 initialized @(37419,0)
GPGPU-Sim uArch: cycles simulated: 37500  inst.: 8901778 (ipc=237.4) sim_rate=48910 (inst/sec) elapsed = 0:0:03:02 / Thu Aug 14 11:06:00 2014
GPGPU-Sim PTX: 9200000 instructions simulated : ctaid=(188,0,0) tid=(161,0,0)
GPGPU-Sim uArch: Shader 12 finished CTA #1 (37631,0), 1 CTAs running
GPGPU-Sim uArch: core: 12, cta: 1 initialized @(37632,0)
GPGPU-Sim uArch: Shader 12 finished CTA #0 (37672,0), 1 CTAs running
GPGPU-Sim uArch: core: 12, cta: 0 initialized @(37673,0)
GPGPU-Sim uArch: Shader 13 finished CTA #0 (37698,0), 1 CTAs running
GPGPU-Sim uArch: core: 13, cta: 0 initialized @(37699,0)
GPGPU-Sim uArch: Shader 13 finished CTA #1 (37940,0), 1 CTAs running
GPGPU-Sim uArch: core: 13, cta: 1 initialized @(37941,0)
GPGPU-Sim uArch: Shader 2 finished CTA #0 (37972,0), 1 CTAs running
GPGPU-Sim uArch: core:  2, cta: 0 initialized @(37973,0)
GPGPU-Sim uArch: Shader 2 finished CTA #1 (37989,0), 1 CTAs running
GPGPU-Sim uArch: core:  2, cta: 1 initialized @(37990,0)
GPGPU-Sim uArch: cycles simulated: 38000  inst.: 9014390 (ipc=237.2) sim_rate=48991 (inst/sec) elapsed = 0:0:03:04 / Thu Aug 14 11:06:02 2014
GPGPU-Sim PTX: 9300000 instructions simulated : ctaid=(213,0,0) tid=(133,0,0)
GPGPU-Sim PTX: 9400000 instructions simulated : ctaid=(200,0,0) tid=(176,0,0)
GPGPU-Sim uArch: cycles simulated: 38500  inst.: 9142861 (ipc=237.5) sim_rate=48892 (inst/sec) elapsed = 0:0:03:07 / Thu Aug 14 11:06:05 2014
GPGPU-Sim uArch: Shader 14 finished CTA #1 (38621,0), 1 CTAs running
GPGPU-Sim uArch: core: 14, cta: 1 initialized @(38622,0)
GPGPU-Sim uArch: Shader 11 finished CTA #0 (38777,0), 1 CTAs running
GPGPU-Sim uArch: core: 11, cta: 0 initialized @(38778,0)
GPGPU-Sim PTX: 9500000 instructions simulated : ctaid=(219,0,0) tid=(57,0,0)
GPGPU-Sim uArch: Shader 4 finished CTA #0 (38879,0), 1 CTAs running
GPGPU-Sim uArch: core:  4, cta: 0 initialized @(38880,0)
GPGPU-Sim uArch: Shader 4 finished CTA #1 (38904,0), 1 CTAs running
GPGPU-Sim uArch: core:  4, cta: 1 initialized @(38905,0)
GPGPU-Sim uArch: Shader 10 finished CTA #0 (38905,0), 1 CTAs running
GPGPU-Sim uArch: core: 10, cta: 0 initialized @(38906,0)
GPGPU-Sim uArch: cycles simulated: 39000  inst.: 9251773 (ipc=237.2) sim_rate=48693 (inst/sec) elapsed = 0:0:03:10 / Thu Aug 14 11:06:08 2014
GPGPU-Sim uArch: Shader 1 finished CTA #1 (39066,0), 1 CTAs running
GPGPU-Sim uArch: core:  1, cta: 1 initialized @(39067,0)
GPGPU-Sim uArch: Shader 10 finished CTA #1 (39099,0), 1 CTAs running
GPGPU-Sim uArch: core: 10, cta: 1 initialized @(39100,0)
GPGPU-Sim uArch: Shader 8 finished CTA #0 (39110,0), 1 CTAs running
GPGPU-Sim uArch: core:  8, cta: 0 initialized @(39111,0)
GPGPU-Sim uArch: Shader 9 finished CTA #1 (39113,0), 1 CTAs running
GPGPU-Sim uArch: core:  9, cta: 1 initialized @(39114,0)
GPGPU-Sim PTX: 9600000 instructions simulated : ctaid=(219,0,0) tid=(389,0,0)
GPGPU-Sim uArch: Shader 9 finished CTA #0 (39268,0), 1 CTAs running
GPGPU-Sim uArch: core:  9, cta: 0 initialized @(39269,0)
GPGPU-Sim uArch: Shader 8 finished CTA #1 (39316,0), 1 CTAs running
GPGPU-Sim uArch: core:  8, cta: 1 initialized @(39317,0)
GPGPU-Sim uArch: Shader 0 finished CTA #0 (39349,0), 1 CTAs running
GPGPU-Sim uArch: core:  0, cta: 0 initialized @(39350,0)
GPGPU-Sim PTX: 9700000 instructions simulated : ctaid=(212,0,0) tid=(41,0,0)
GPGPU-Sim uArch: Shader 0 finished CTA #1 (39480,0), 1 CTAs running
GPGPU-Sim uArch: core:  0, cta: 1 initialized @(39481,0)
GPGPU-Sim uArch: cycles simulated: 39500  inst.: 9421098 (ipc=238.5) sim_rate=48813 (inst/sec) elapsed = 0:0:03:13 / Thu Aug 14 11:06:11 2014
GPGPU-Sim uArch: Shader 11 finished CTA #1 (39524,0), 1 CTAs running
GPGPU-Sim uArch: core: 11, cta: 1 initialized @(39525,0)
GPGPU-Sim uArch: Shader 1 finished CTA #0 (39638,0), 1 CTAs running
GPGPU-Sim uArch: core:  1, cta: 0 initialized @(39639,0)
GPGPU-Sim PTX: 9800000 instructions simulated : ctaid=(230,0,0) tid=(272,0,0)
GPGPU-Sim uArch: Shader 6 finished CTA #1 (39749,0), 1 CTAs running
GPGPU-Sim uArch: core:  6, cta: 1 initialized @(39750,0)
GPGPU-Sim uArch: Shader 6 finished CTA #0 (39806,0), 1 CTAs running
GPGPU-Sim uArch: core:  6, cta: 0 initialized @(39807,0)
GPGPU-Sim uArch: cycles simulated: 40000  inst.: 9581030 (ipc=239.5) sim_rate=48882 (inst/sec) elapsed = 0:0:03:16 / Thu Aug 14 11:06:14 2014
GPGPU-Sim PTX: 9900000 instructions simulated : ctaid=(228,0,0) tid=(223,0,0)
GPGPU-Sim PTX: 10000000 instructions simulated : ctaid=(210,0,0) tid=(13,0,0)
GPGPU-Sim uArch: Shader 14 finished CTA #0 (40391,0), 1 CTAs running
GPGPU-Sim uArch: core: 14, cta: 0 initialized @(40392,0)
GPGPU-Sim uArch: Shader 5 finished CTA #1 (40476,0), 1 CTAs running
GPGPU-Sim uArch: core:  5, cta: 1 initialized @(40477,0)
GPGPU-Sim uArch: cycles simulated: 40500  inst.: 9721960 (ipc=240.0) sim_rate=49100 (inst/sec) elapsed = 0:0:03:18 / Thu Aug 14 11:06:16 2014
GPGPU-Sim PTX: 10100000 instructions simulated : ctaid=(226,0,0) tid=(471,0,0)
GPGPU-Sim uArch: cycles simulated: 41000  inst.: 9831304 (ipc=239.8) sim_rate=48911 (inst/sec) elapsed = 0:0:03:21 / Thu Aug 14 11:06:19 2014
GPGPU-Sim uArch: Shader 7 finished CTA #1 (41120,0), 1 CTAs running
GPGPU-Sim uArch: core:  7, cta: 1 initialized @(41121,0)
GPGPU-Sim PTX: 10200000 instructions simulated : ctaid=(237,0,0) tid=(242,0,0)
GPGPU-Sim uArch: Shader 5 finished CTA #0 (41377,0), 1 CTAs running
GPGPU-Sim uArch: core:  5, cta: 0 initialized @(41378,0)
GPGPU-Sim uArch: Shader 7 finished CTA #0 (41382,0), 1 CTAs running
GPGPU-Sim uArch: core:  7, cta: 0 initialized @(41383,0)
GPGPU-Sim uArch: cycles simulated: 41500  inst.: 9961475 (ipc=240.0) sim_rate=48830 (inst/sec) elapsed = 0:0:03:24 / Thu Aug 14 11:06:22 2014
GPGPU-Sim PTX: 10300000 instructions simulated : ctaid=(228,0,0) tid=(388,0,0)
GPGPU-Sim uArch: cycles simulated: 42000  inst.: 10074837 (ipc=239.9) sim_rate=48906 (inst/sec) elapsed = 0:0:03:26 / Thu Aug 14 11:06:24 2014
GPGPU-Sim PTX: 10400000 instructions simulated : ctaid=(238,0,0) tid=(208,0,0)
GPGPU-Sim uArch: Shader 12 finished CTA #0 (42206,0), 1 CTAs running
GPGPU-Sim uArch: core: 12, cta: 0 initialized @(42207,0)
GPGPU-Sim uArch: Shader 3 finished CTA #1 (42210,0), 1 CTAs running
GPGPU-Sim uArch: core:  3, cta: 1 initialized @(42211,0)
GPGPU-Sim uArch: Shader 12 finished CTA #1 (42223,0), 1 CTAs running
GPGPU-Sim uArch: core: 12, cta: 1 initialized @(42224,0)
GPGPU-Sim uArch: Shader 3 finished CTA #0 (42426,0), 1 CTAs running
GPGPU-Sim uArch: core:  3, cta: 0 initialized @(42427,0)
GPGPU-Sim uArch: cycles simulated: 42500  inst.: 10177886 (ipc=239.5) sim_rate=48932 (inst/sec) elapsed = 0:0:03:28 / Thu Aug 14 11:06:26 2014
GPGPU-Sim PTX: 10500000 instructions simulated : ctaid=(240,0,0) tid=(160,0,0)
GPGPU-Sim uArch: Shader 13 finished CTA #0 (42611,0), 1 CTAs running
GPGPU-Sim uArch: core: 13, cta: 0 initialized @(42612,0)
GPGPU-Sim uArch: Shader 13 finished CTA #1 (42801,0), 1 CTAs running
GPGPU-Sim uArch: core: 13, cta: 1 initialized @(42802,0)
GPGPU-Sim PTX: 10600000 instructions simulated : ctaid=(245,0,0) tid=(208,0,0)
GPGPU-Sim uArch: Shader 2 finished CTA #0 (42969,0), 1 CTAs running
GPGPU-Sim uArch: core:  2, cta: 0 initialized @(42970,0)
GPGPU-Sim uArch: cycles simulated: 43000  inst.: 10290322 (ipc=239.3) sim_rate=49001 (inst/sec) elapsed = 0:0:03:30 / Thu Aug 14 11:06:28 2014
GPGPU-Sim uArch: Shader 2 finished CTA #1 (43129,0), 1 CTAs running
GPGPU-Sim uArch: core:  2, cta: 1 initialized @(43130,0)
GPGPU-Sim PTX: 10700000 instructions simulated : ctaid=(243,0,0) tid=(374,0,0)
GPGPU-Sim uArch: cycles simulated: 43500  inst.: 10424911 (ipc=239.7) sim_rate=48943 (inst/sec) elapsed = 0:0:03:33 / Thu Aug 14 11:06:31 2014
GPGPU-Sim uArch: Shader 14 finished CTA #1 (43675,0), 1 CTAs running
GPGPU-Sim uArch: core: 14, cta: 1 initialized @(43676,0)
GPGPU-Sim uArch: Shader 4 finished CTA #0 (43687,0), 1 CTAs running
GPGPU-Sim uArch: core:  4, cta: 0 initialized @(43688,0)
GPGPU-Sim PTX: 10800000 instructions simulated : ctaid=(249,0,0) tid=(38,0,0)
GPGPU-Sim uArch: Shader 4 finished CTA #1 (43863,0), 1 CTAs running
GPGPU-Sim uArch: core:  4, cta: 1 initialized @(43864,0)
GPGPU-Sim uArch: cycles simulated: 44000  inst.: 10529901 (ipc=239.3) sim_rate=48976 (inst/sec) elapsed = 0:0:03:35 / Thu Aug 14 11:06:33 2014
GPGPU-Sim uArch: Shader 11 finished CTA #0 (44143,0), 1 CTAs running
GPGPU-Sim uArch: core: 11, cta: 0 initialized @(44144,0)
GPGPU-Sim uArch: Shader 1 finished CTA #1 (44153,0), 1 CTAs running
GPGPU-Sim uArch: core:  1, cta: 1 initialized @(44154,0)
GPGPU-Sim PTX: 10900000 instructions simulated : ctaid=(250,0,0) tid=(54,0,0)
GPGPU-Sim uArch: Shader 0 finished CTA #1 (44353,0), 1 CTAs running
GPGPU-Sim uArch: core:  0, cta: 1 initialized @(44354,0)
GPGPU-Sim uArch: Shader 9 finished CTA #0 (44376,0), 1 CTAs running
GPGPU-Sim uArch: core:  9, cta: 0 initialized @(44377,0)
GPGPU-Sim uArch: Shader 0 finished CTA #0 (44378,0), 1 CTAs running
GPGPU-Sim uArch: core:  0, cta: 0 initialized @(44379,0)
GPGPU-Sim uArch: Shader 9 finished CTA #1 (44435,0), 1 CTAs running
GPGPU-Sim uArch: core:  9, cta: 1 initialized @(44436,0)
GPGPU-Sim uArch: cycles simulated: 44500  inst.: 10660354 (ipc=239.6) sim_rate=48900 (inst/sec) elapsed = 0:0:03:38 / Thu Aug 14 11:06:36 2014
GPGPU-Sim PTX: 11000000 instructions simulated : ctaid=(243,0,0) tid=(15,0,0)
GPGPU-Sim uArch: Shader 10 finished CTA #1 (44568,0), 1 CTAs running
GPGPU-Sim uArch: core: 10, cta: 1 initialized @(44569,0)
GPGPU-Sim uArch: Shader 10 finished CTA #0 (44585,0), 1 CTAs running
GPGPU-Sim uArch: core: 10, cta: 0 initialized @(44586,0)
GPGPU-Sim uArch: Shader 8 finished CTA #1 (44607,0), 1 CTAs running
GPGPU-Sim uArch: core:  8, cta: 1 initialized @(44608,0)
GPGPU-Sim uArch: Shader 8 finished CTA #0 (44642,0), 1 CTAs running
GPGPU-Sim uArch: core:  8, cta: 0 initialized @(44643,0)
GPGPU-Sim uArch: Shader 6 finished CTA #1 (44743,0), 1 CTAs running
GPGPU-Sim uArch: core:  6, cta: 1 initialized @(44744,0)
GPGPU-Sim PTX: 11100000 instructions simulated : ctaid=(245,0,0) tid=(11,0,0)
GPGPU-Sim uArch: Shader 1 finished CTA #0 (44795,0), 1 CTAs running
GPGPU-Sim uArch: core:  1, cta: 0 initialized @(44796,0)
GPGPU-Sim uArch: Shader 6 finished CTA #0 (44798,0), 1 CTAs running
GPGPU-Sim uArch: core:  6, cta: 0 initialized @(44799,0)
GPGPU-Sim uArch: Shader 11 finished CTA #1 (44998,0), 1 CTAs running
GPGPU-Sim uArch: core: 11, cta: 1 initialized @(44999,0)
GPGPU-Sim uArch: cycles simulated: 45000  inst.: 10835941 (ipc=240.8) sim_rate=49031 (inst/sec) elapsed = 0:0:03:41 / Thu Aug 14 11:06:39 2014
GPGPU-Sim PTX: 11200000 instructions simulated : ctaid=(235,0,0) tid=(174,0,0)
GPGPU-Sim PTX: 11300000 instructions simulated : ctaid=(253,0,0) tid=(317,0,0)
GPGPU-Sim uArch: cycles simulated: 45500  inst.: 10981339 (ipc=241.3) sim_rate=49023 (inst/sec) elapsed = 0:0:03:44 / Thu Aug 14 11:06:42 2014
GPGPU-Sim uArch: Shader 5 finished CTA #1 (45585,0), 1 CTAs running
GPGPU-Sim uArch: core:  5, cta: 1 initialized @(45586,0)
GPGPU-Sim uArch: Shader 14 finished CTA #0 (45630,0), 1 CTAs running
GPGPU-Sim uArch: core: 14, cta: 0 initialized @(45631,0)
GPGPU-Sim uArch: Shader 5 finished CTA #0 (45666,0), 1 CTAs running
GPGPU-Sim uArch: core:  5, cta: 0 initialized @(45667,0)
GPGPU-Sim PTX: 11400000 instructions simulated : ctaid=(266,0,0) tid=(468,0,0)
GPGPU-Sim uArch: cycles simulated: 46000  inst.: 11117624 (ipc=241.7) sim_rate=49193 (inst/sec) elapsed = 0:0:03:46 / Thu Aug 14 11:06:44 2014
GPGPU-Sim PTX: 11500000 instructions simulated : ctaid=(257,0,0) tid=(206,0,0)
GPGPU-Sim uArch: Shader 7 finished CTA #1 (46221,0), 1 CTAs running
GPGPU-Sim uArch: core:  7, cta: 1 initialized @(46222,0)
GPGPU-Sim uArch: Shader 7 finished CTA #0 (46238,0), 1 CTAs running
GPGPU-Sim uArch: core:  7, cta: 0 initialized @(46239,0)
GPGPU-Sim PTX: 11600000 instructions simulated : ctaid=(242,0,0) tid=(164,0,0)
GPGPU-Sim uArch: cycles simulated: 46500  inst.: 11254316 (ipc=242.0) sim_rate=49145 (inst/sec) elapsed = 0:0:03:49 / Thu Aug 14 11:06:47 2014
GPGPU-Sim uArch: cycles simulated: 47000  inst.: 11333481 (ipc=241.1) sim_rate=49062 (inst/sec) elapsed = 0:0:03:51 / Thu Aug 14 11:06:49 2014
GPGPU-Sim PTX: 11700000 instructions simulated : ctaid=(264,0,0) tid=(308,0,0)
[...]
dq_lat_table:0 	0 	0 	0 	0 	0 	0 	0 	0 	0 	0 	0 	0 	0 	0 	0 	0 	0 	0 	0 	0 	0 	0 	0 	0 	0 	0 	0 	0 	0 	0 	0 	
mf_lat_table:0 	0 	0 	0 	0 	0 	0 	418398 	459171 	976 	0 	0 	0 	0 	0 	0 	0 	0 	0 	0 	0 	0 	0 	0 	0 	0 	0 	0 	0 	0 	0 	0 	
icnt2mem_lat_table:0 	0 	0 	688495 	175749 	13835 	452 	186 	23 	0 	0 	0 	0 	0 	0 	0 	0 	0 	0 	0 	0 	0 	0 	0 	
icnt2sh_lat_table:0 	0 	0 	123823 	191652 	261334 	183224 	8512 	0 	0 	0 	120 	180 	511 	921 	1894 	3860 	7660 	15340 	30358 	49156 	0 	0 	0 	
mf_lat_pw_table:0 	0 	0 	0 	0 	0 	0 	1971 	1907 	0 	0 	0 	0 	0 	0 	0 	0 	0 	0 	0 	0 	0 	0 	0 	0 	0 	0 	0 	0 	0 	0 	0 	
maximum concurrent accesses to same row:
dram[0]:         6         5         6         5        12        10        20        14         6         8         5         5        10        10         6         5 
dram[1]:         7         5         6         6        11        12        21        21         9        10         6         5        10         6         6         7 
dram[2]:         5         5         7         6        11        11        16        19        10         7         5         5        10         9         6         6 
dram[3]:         6         5         5         6        14        11        21        17         8        10         9         7         7         9         5         6 
dram[4]:         5         6         6         5         8        10        15        21         6         7         6         6        10         7         5         6 
dram[5]:         6         7         6         5        10        13        17        19         9         8         5         5        10        10         5         7 
maximum service time to same row:
dram[0]:      7038      9809      8262      5904      9429      7203      6328      6665      7252      5847      7932      9080      8973      7303      8361      7303 
dram[1]:      6484      7569      8543      5940      7157      8531      6817      6489      6890      6462      8042     10759      8989      8385      8483      6466 
dram[2]:      9246      6426      5959      8637      7409      8426      7220      7871      6545      7816      6215     10678      8626      5992      8067      8813 
dram[3]:      6706      8686      7312      8631      6721      8049      5997      5429      6175      7832      5306     10737      8851      6797      6908      8674 
dram[4]:      7457      6981      7062      8707      7422      8050      6366      6327      6174      7232      8065     10700      8877      8515      6268      9103 
dram[5]:      7409      6983      7876      8716      7917      8958     10605      8993      7058      6542      8497     11311      8881      6913      6708      5875 
average row accesses per activate:
dram[0]:  1.885937  1.886738  1.855986  1.869103  1.845752  1.861480  1.798305  1.808798  1.860028  1.807042  1.814643  1.830341  1.903484  1.890909  1.886099  1.864608 
dram[1]:  1.854061  1.841190  1.887119  1.835075  1.852969  1.822396  1.782572  1.785838  1.874941  1.839335  1.817169  1.840469  1.873516  1.896799  1.872167  1.830241 
dram[2]:  1.861524  1.863256  1.888889  1.874188  1.852149  1.845480  1.778912  1.789199  1.847248  1.832200  1.829314  1.838739  1.875843  1.892942  1.852221  1.835945 
dram[3]:  1.870633  1.897032  1.863738  1.895656  1.838134  1.851869  1.780234  1.779412  1.871951  1.848717  1.817190  1.825949  1.880000  1.893277  1.862834  1.865331 
dram[4]:  1.839437  1.891829  1.879070  1.862736  1.847268  1.860993  1.804489  1.820458  1.859493  1.873800  1.858586  1.806393  1.878115  1.879310  1.834846  1.865394 
dram[5]:  1.871278  1.896378  1.874291  1.845103  1.864479  1.846736  1.788230  1.790343  1.855382  1.851718  1.812940  1.828067  1.867519  1.896998  1.856604  1.892621 
average row locality = 388190/209830 = 1.850021
number of total memory accesses made:
dram[0]:         0         0         0         0         0         0         0         0         0         0         0         0         0         0         0         0 
dram[1]:         0         0         0         0         0         0         0         0         0         0         0         0         0         0         0         0 
dram[2]:         0         0         0         0         0         0         0         0         0         0         0         0         0         0         0         0 
dram[3]:         0         0         0         0         0         0         0         0         0         0         0         0         0         0         0         0 
dram[4]:         0         0         0         0         0         0         0         0         0         0         0         0         0         0         0         0 
dram[5]:         0         0         0         0         0         0         0         0         0         0         0         0         0         0         0         0 
total accesses: 0
min_bank_accesses = 0!
min_chip_accesses = 0!
number of total read accesses:
dram[0]:      4027      3812      4124      4041      3885      3918      4184      4093      3913      3814      3846      4011      3904      3902      3969      3853 
dram[1]:      3947      3921      4146      4039      3928      3965      4154      4076      3829      3835      3842      4013      3966      3829      4043      3874 
dram[2]:      3914      3919      4114      4037      3917      3995      4124      4048      3881      3911      3869      3957      4028      3851      4002      3917 
dram[3]:      3862      3985      4158      4015      4014      3957      4209      4175      3862      3972      3926      3969      4042      3877      4025      3933 
dram[4]:      3826      3974      4040      4044      3949      3930      4121      4229      3823      3971      3979      3884      3996      3892      3964      3936 
dram[5]:      3796      4044      3966      4050      3915      3898      4103      4276      3778      3967      4049      3864      3943      3952      3859      3934 
total reads: 381120
bank skew: 4276/3778 = 1.13
chip skew: 63981/63296 = 1.01
number of total write accesses:
dram[0]:        90        86         0         0         4         6        60        60       140       138        70        67       139       154        88        72 
dram[1]:        93       102         0         0         4         6        60        60       144       149        74        71       137       141        87        72 
dram[2]:        92        87         0         0         4         6        60        60       146       129        75        68       142       145        84        67 
dram[3]:       100       105         0         0         6         6        60        60       129       134        70        70       141       150        90        70 
dram[4]:        92       101         0         0         6         6        60        60       134       127        69        72       149       141        80        69 
dram[5]:       100        92         0         0         6         6        60        62       135       129        70        70       145       155        77        67 
total reads: 7070
min_bank_accesses = 0!
chip skew: 1200/1165 = 1.03
average mf latency per bank:
dram[0]:        395       403       351       353       719       795      1171      1198       508       514       534       537       445       445       400       402
dram[1]:        396       402       353       356       720       873      1185      1332       514       518       539       536       447       451       397       402
dram[2]:        400       399       354       356       728       821      1202      1223       517       509       534       538       448       445       401       399
dram[3]:        401       401       354       356       818       817      1285      1213       511       509       541       534       450       447       402       400
dram[4]:        398       401       348       356       775       825      1165      1207       517       510       527       537       440       445       399       400
dram[5]:        398       400       350       356       778       894      1181      1248       510       514       529       544       442       444       398       401
maximum mf latency per bank:
dram[0]:        588       532       622       588       584       582       574       600       531       553       564       612       552       545       622       546
dram[1]:        605       558       642       546       596       563       599       553       530       586       539       607       567       564       583       583
dram[2]:        555       541       584       509       619       582       572       580       543       547       611       594       662       560       545       537
dram[3]:        546       563       641       551       632       592       591       621       566       580       603       559       638       549       529       562
dram[4]:        524       553       528       583       584       626       625       569       541       519       547       556       576       539       578       566
dram[5]:        575       564       535       543       559       587       545       592       552       525       577       580       554       541       539       555

Number of Memory Banks Accessed per Memory Operation per Warp (from 0):
0	0	0	0	0	0	0	0	0	0	0	0	0	0	0	0	0	0	0	0	0	0	0	0	0	0	0	0	0	0	0	0	0	0	0	0	0	0	0	0	0	0	0	0	0	0	0	0	0	0	0	0	0	0	0	0	0	0	0	0	0	0	0	0	0	0	0	0	0	0	0	0	0	0	0	0	0	0	0	0	0	0	0	0	0	0	0	0	0	0	0	0	0	0	0	0	
Average # of Memory Banks Accessed per Memory Operation per Warp=-nan

position of mrq chosen
0	0	0	0	0	0	0	0	0	0	0	0	0	0	0	0	

average position of mrq chosen = -nan
Memory Partition 0: 
Cache L2_bank_000:
MSHR contents

Cache L2_bank_001:
MSHR contents

In Dram Latency Queue (total = 0): 
DRAM[0]: 16 bks, busW=4 BL=8 CL=12, tRRD=2 tCCD=6, tRCD=12 tRAS=28 tRP=12 tRC=40
n_cmd=2561389 n_nop=2363511 n_act=34782 n_pre=34766 n_req=64470 n_rd=126592 n_write=1738 bw_util=0.1002
n_activity=1147819 dram_eff=0.2236
bk0: 8054a 2482076i bk1: 7624a 2486163i bk2: 8248a 2481655i bk3: 8082a 2482993i bk4: 7770a 2486000i bk5: 7836a 2485255i bk6: 8368a 2476915i bk7: 8186a 2478325i bk8: 7826a 2482103i bk9: 7628a 2482333i bk10: 7692a 2483440i bk11: 8022a 2480697i bk12: 7808a 2483183i bk13: 7804a 2482235i bk14: 7938a 2482671i bk15: 7706a 2484852i 
dram_util_bins: 0 0 0 0 0 0 0 0 0 0
dram_eff_bins: 0 0 0 0 0 0 0 0 0 0
mrqq: max=9 avg=0.221387
Memory Partition 1: 
Cache L2_bank_002:
MSHR contents

Cache L2_bank_003:
MSHR contents

In Dram Latency Queue (total = 0): 
DRAM[1]: 16 bks, busW=4 BL=8 CL=12, tRRD=2 tCCD=6, tRCD=12 tRAS=28 tRP=12 tRC=40
n_cmd=2561389 n_nop=2362733 n_act=35047 n_pre=35031 n_req=64607 n_rd=126814 n_write=1764 bw_util=0.1004
n_activity=1152928 dram_eff=0.223
bk0: 7894a 2482799i bk1: 7842a 2482219i bk2: 8292a 2482373i bk3: 8078a 2482716i bk4: 7856a 2485176i bk5: 7930a 2483436i bk6: 8308a 2476468i bk7: 8152a 2477379i bk8: 7658a 2484299i bk9: 7670a 2482683i bk10: 7684a 2483842i bk11: 8026a 2480553i bk12: 7932a 2481588i bk13: 7658a 2483887i bk14: 8086a 2480973i bk15: 7748a 2482675i 
dram_util_bins: 0 0 0 0 0 0 0 0 0 0
dram_eff_bins: 0 0 0 0 0 0 0 0 0 0
mrqq: max=12 avg=0.221345
Memory Partition 2: 
Cache L2_bank_004:
MSHR contents

Cache L2_bank_005:
MSHR contents

In Dram Latency Queue (total = 0): 
DRAM[2]: 16 bks, busW=4 BL=8 CL=12, tRRD=2 tCCD=6, tRCD=12 tRAS=28 tRP=12 tRC=40
n_cmd=2561389 n_nop=2362695 n_act=35007 n_pre=34991 n_req=64649 n_rd=126968 n_write=1728 bw_util=0.1005
n_activity=1150546 dram_eff=0.2237
bk0: 7828a 2483596i bk1: 7838a 2483425i bk2: 8228a 2482708i bk3: 8074a 2483878i bk4: 7834a 2485624i bk5: 7990a 2483522i bk6: 8248a 2476521i bk7: 8096a 2478234i bk8: 7762a 2482507i bk9: 7822a 2481019i bk10: 7738a 2483122i bk11: 7914a 2481788i bk12: 8056a 2479933i bk13: 7702a 2484069i bk14: 8004a 2481265i bk15: 7834a 2482790i 
dram_util_bins: 0 0 0 0 0 0 0 0 0 0
dram_eff_bins: 0 0 0 0 0 0 0 0 0 0
mrqq: max=11 avg=0.222766
Memory Partition 3: 
Cache L2_bank_006:
MSHR contents

Cache L2_bank_007:
MSHR contents

In Dram Latency Queue (total = 0): 
DRAM[3]: 16 bks, busW=4 BL=8 CL=12, tRRD=2 tCCD=6, tRCD=12 tRAS=28 tRP=12 tRC=40
n_cmd=2561389 n_nop=2361288 n_act=35199 n_pre=35183 n_req=65172 n_rd=127962 n_write=1757 bw_util=0.1013
n_activity=1156020 dram_eff=0.2244
bk0: 7724a 2485040i bk1: 7970a 2482632i bk2: 8316a 2481181i bk3: 8030a 2484496i bk4: 8028a 2482860i bk5: 7914a 2484531i bk6: 8418a 2475630i bk7: 8350a 2474860i bk8: 7724a 2483538i bk9: 7944a 2480723i bk10: 7852a 2481706i bk11: 7938a 2481511i bk12: 8084a 2479690i bk13: 7754a 2483101i bk14: 8050a 2480839i bk15: 7866a 2482953i 
dram_util_bins: 0 0 0 0 0 0 0 0 0 0
dram_eff_bins: 0 0 0 0 0 0 0 0 0 0
mrqq: max=11 avg=0.223645
Memory Partition 4: 
Cache L2_bank_008:
MSHR contents

Cache L2_bank_009:
MSHR contents

In Dram Latency Queue (total = 0): 
DRAM[4]: 16 bks, busW=4 BL=8 CL=12, tRRD=2 tCCD=6, tRCD=12 tRAS=28 tRP=12 tRC=40
n_cmd=2561389 n_nop=2362716 n_act=34921 n_pre=34905 n_req=64724 n_rd=127116 n_write=1731 bw_util=0.1006
n_activity=1150354 dram_eff=0.224
bk0: 7652a 2484478i bk1: 7948a 2482952i bk2: 8080a 2483787i bk3: 8088a 2482776i bk4: 7898a 2484195i bk5: 7860a 2485068i bk6: 8242a 2477954i bk7: 8458a 2475634i bk8: 7646a 2484169i bk9: 7942a 2482021i bk10: 7958a 2482616i bk11: 7768a 2482274i bk12: 7992a 2480760i bk13: 7784a 2482314i bk14: 7928a 2481238i bk15: 7872a 2482757i 
dram_util_bins: 0 0 0 0 0 0 0 0 0 0
dram_eff_bins: 0 0 0 0 0 0 0 0 0 0
mrqq: max=14 avg=0.223639
Memory Partition 5: 
Cache L2_bank_010:
MSHR contents

Cache L2_bank_011:
MSHR contents

In Dram Latency Queue (total = 0): 
DRAM[5]: 16 bks, busW=4 BL=8 CL=12, tRRD=2 tCCD=6, tRCD=12 tRAS=28 tRP=12 tRC=40
n_cmd=2561389 n_nop=2363128 n_act=34875 n_pre=34859 n_req=64568 n_rd=126788 n_write=1739 bw_util=0.1004
n_activity=1153191 dram_eff=0.2229
bk0: 7592a 2486161i bk1: 8088a 2481670i bk2: 7932a 2485341i bk3: 8100a 2482549i bk4: 7830a 2485749i bk5: 7796a 2485682i bk6: 8206a 2478284i bk7: 8552a 2473687i bk8: 7556a 2484529i bk9: 7934a 2481132i bk10: 8098a 2479335i bk11: 7728a 2482517i bk12: 7886a 2481592i bk13: 7904a 2481806i bk14: 7718a 2484088i bk15: 7868a 2483904i 
dram_util_bins: 0 0 0 0 0 0 0 0 0 0
dram_eff_bins: 0 0 0 0 0 0 0 0 0 0
mrqq: max=11 avg=0.222288

========= L2 cache stats =========
L2_cache_bank[0]: Access = 71573, Miss = 31852, Miss_rate = 0.445, Pending_hits = 548, Reservation_fails = 2537
L2_cache_bank[1]: Access = 71723, Miss = 31444, Miss_rate = 0.438, Pending_hits = 538, Reservation_fails = 2107
L2_cache_bank[2]: Access = 71387, Miss = 31855, Miss_rate = 0.446, Pending_hits = 580, Reservation_fails = 2122
L2_cache_bank[3]: Access = 76311, Miss = 31552, Miss_rate = 0.413, Pending_hits = 572, Reservation_fails = 1621
L2_cache_bank[4]: Access = 71229, Miss = 31849, Miss_rate = 0.447, Pending_hits = 571, Reservation_fails = 2651
L2_cache_bank[5]: Access = 73399, Miss = 31635, Miss_rate = 0.431, Pending_hits = 524, Reservation_fails = 1118
L2_cache_bank[6]: Access = 75978, Miss = 32098, Miss_rate = 0.422, Pending_hits = 528, Reservation_fails = 1722
L2_cache_bank[7]: Access = 73353, Miss = 31883, Miss_rate = 0.435, Pending_hits = 564, Reservation_fails = 1750
L2_cache_bank[8]: Access = 72365, Miss = 31698, Miss_rate = 0.438, Pending_hits = 545, Reservation_fails = 1687
L2_cache_bank[9]: Access = 73285, Miss = 31860, Miss_rate = 0.435, Pending_hits = 510, Reservation_fails = 1497
L2_cache_bank[10]: Access = 71782, Miss = 31409, Miss_rate = 0.438, Pending_hits = 521, Reservation_fails = 2047
L2_cache_bank[11]: Access = 76355, Miss = 31985, Miss_rate = 0.419, Pending_hits = 518, Reservation_fails = 1541
L2_total_cache_accesses = 878740
L2_total_cache_misses = 381120
L2_total_cache_miss_rate = 0.4337
L2_total_cache_pending_hits = 6519
L2_total_cache_reservation_fails = 22400
L2_total_cache_breakdown:
	L2_cache_stats_breakdown[GLOBAL_ACC_R][HIT] = 384612
	L2_cache_stats_breakdown[GLOBAL_ACC_R][HIT_RESERVED] = 4236
	L2_cache_stats_breakdown[GLOBAL_ACC_R][MISS] = 379667
	L2_cache_stats_breakdown[GLOBAL_ACC_R][RESERVATION_FAIL] = 7655
	L2_cache_stats_breakdown[CONST_ACC_R][HIT] = 26
	L2_cache_stats_breakdown[CONST_ACC_R][HIT_RESERVED] = 3
	L2_cache_stats_breakdown[CONST_ACC_R][MISS] = 1
	L2_cache_stats_breakdown[CONST_ACC_R][RESERVATION_FAIL] = 100
	L2_cache_stats_breakdown[GLOBAL_ACC_W][HIT] = 106317
	L2_cache_stats_breakdown[GLOBAL_ACC_W][HIT_RESERVED] = 2244
	L2_cache_stats_breakdown[GLOBAL_ACC_W][MISS] = 1439
	L2_cache_stats_breakdown[GLOBAL_ACC_W][RESERVATION_FAIL] = 13713
	L2_cache_stats_breakdown[INST_ACC_R][HIT] = 146
	L2_cache_stats_breakdown[INST_ACC_R][HIT_RESERVED] = 36
	L2_cache_stats_breakdown[INST_ACC_R][MISS] = 13
	L2_cache_stats_breakdown[INST_ACC_R][RESERVATION_FAIL] = 932
L2_cache_data_port_util = 0.071
L2_cache_fill_port_util = 0.065

icnt_total_pkts_mem_to_simt=3953640
icnt_total_pkts_simt_to_mem=988740
LD_mem_lat_dist  0 0 0 0 0 0 0 0 0 0 0 0 0 0 0 0 0 0 0 0 0 0 0 0 0 0 0
ST_mem_lat_dist  0 0 0 0 0 0 0 0 0 0 0 0 0 0 0 0 0 0 0 0 0 0 0 0 0 0 0
----------------------------Interconnect-DETAILS--------------------------------
Class 0:
Packet latency average = 24.6018
	minimum = 6
	maximum = 188
Network latency average = 19.9831
	minimum = 6
	maximum = 168
Slowest packet = 884708
Flit latency average = 21.6662
	minimum = 6
	maximum = 168
Slowest flit = 2473010
Fragmentation average = 0
	minimum = 0
	maximum = 0
Injected packet rate average = 0.0355911
	minimum = 0.0317691 (at node 8)
	maximum = 0.042081 (at node 18)
Accepted packet rate average = 0.0355911
	minimum = 0.0317691 (at node 8)
	maximum = 0.042081 (at node 18)
Injected flit rate average = 0.100672
	minimum = 0.0354176 (at node 12)
	maximum = 0.192129 (at node 18)
Accepted flit rate average= 0.100672
	minimum = 0.042942 (at node 25)
	maximum = 0.147083 (at node 14)
Injected packet length average = 2.82856
Accepted packet length average = 2.82856
Total in-flight flits = 0 (0 measured)
====== Overall Traffic Statistics ======
====== Traffic class 0 ======
Packet latency average = 25.6017 (2 samples)
	minimum = 6 (2 samples)
	maximum = 184 (2 samples)
Network latency average = 20.6898 (2 samples)
	minimum = 6 (2 samples)
	maximum = 157.5 (2 samples)
Flit latency average = 22.6016 (2 samples)
	minimum = 6 (2 samples)
	maximum = 155.5 (2 samples)
Fragmentation average = 3.96592e-05 (2 samples)
	minimum = 0 (2 samples)
	maximum = 28.5 (2 samples)
Injected packet rate average = 0.0336634 (2 samples)
	minimum = 0.0299334 (2 samples)
	maximum = 0.0395843 (2 samples)
Accepted packet rate average = 0.0336634 (2 samples)
	minimum = 0.0299334 (2 samples)
	maximum = 0.0395843 (2 samples)
Injected flit rate average = 0.0947019 (2 samples)
	minimum = 0.0336995 (2 samples)
	maximum = 0.17909 (2 samples)
Accepted flit rate average = 0.0947019 (2 samples)
	minimum = 0.0408653 (2 samples)
	maximum = 0.138089 (2 samples)
Injected packet size average = 2.8132 (2 samples)
Accepted packet size average = 2.8132 (2 samples)
Hops average = 1 (2 samples)
----------------------------END-of-Interconnect-DETAILS-------------------------


gpgpu_simulation_time = 0 days, 1 hrs, 53 min, 5 sec (6785 sec)
gpgpu_simulation_rate = 79927 (inst/sec)
gpgpu_simulation_rate = 285 (cycle/sec)
GPGPU-Sim: synchronize waiting for inactive GPU simulation
GPGPU-Sim API: Stream Manager State
GPGPU-Sim: detected inactive GPU simulation thread
Time spent in different stages of GPU_CUDA KERNEL:
 0.000031000000 s,  0.000001288767 % : GPU: SET DEVICE / DRIVER INIT
 0.000001000000 s,  0.000000041573 % : GPU MEM: ALO
 1.292119026184 s,  0.053717434406 % : GPU MEM: COPY IN
2404.104003906250 s, 99.946136474609 % : GPU: KERNEL
 0.003408000106 s,  0.000141681245 % : GPU MEM: COPY OUT
 0.000001000000 s,  0.000000041573 % : GPU MEM: FRE
Total time:
2405.399658203125 s
> > > > > > > > > > 
